* File: cpu_bonus.pex.netlist.pex
* Created: Tue Jan 23 15:38:15 2024
* Program "Calibre xRC"
* Version "v2016.4_38.25"
* Nominal Temperature: 27C
* Circuit Temperature: 27C
* 
.subckt PM_CPU_BONUS%XI13/XI7/NET5 3 7 9 10 16 17 23
c37 23 0 0.0123768f
c38 17 0 0.00238289f
c39 16 0 0.00780121f
c40 9 0 0.0141584f
c41 7 0 0.0228518f
c42 3 0 0.0167116f
r43 20 23 5.85
r44 17 20 82.9714
r45 16 17 95.0857
r46 12 16 0.803571
r47 12 13 88.2939
r48 10 13 1.14
r49 9 13 1.14
r50 5 23 3.06959
r51 5 7 31.59
r52 1 23 3.06959
r53 1 3 25.35
.ends

.subckt PM_CPU_BONUS%XI13/XI6/NET5 3 7 9 10 16 17 23
c37 23 0 0.012397f
c38 17 0 0.00209459f
c39 16 0 0.00784885f
c40 9 0 0.0146934f
c41 7 0 0.0228518f
c42 3 0 0.0167116f
r43 20 23 5.85
r44 17 20 82.9714
r45 16 17 95.0857
r46 12 16 0.803571
r47 12 13 88.2939
r48 10 13 1.14
r49 9 13 1.14
r50 5 23 3.06959
r51 5 7 31.59
r52 1 23 3.06959
r53 1 3 25.35
.ends

.subckt PM_CPU_BONUS%XI13/XI5/NET5 3 7 9 10 16 17 23
c37 23 0 0.012397f
c38 17 0 0.00209459f
c39 16 0 0.00784885f
c40 9 0 0.0148984f
c41 7 0 0.0228518f
c42 3 0 0.0167116f
r43 20 23 5.85
r44 17 20 82.9714
r45 16 17 95.0857
r46 12 16 0.803571
r47 12 13 88.2939
r48 10 13 1.14
r49 9 13 1.14
r50 5 23 3.06959
r51 5 7 31.59
r52 1 23 3.06959
r53 1 3 25.35
.ends

.subckt PM_CPU_BONUS%XI13/XI4/NET5 3 7 9 10 16 17 23
c37 23 0 0.012397f
c38 17 0 0.00209459f
c39 16 0 0.00784885f
c40 9 0 0.0161576f
c41 7 0 0.0228518f
c42 3 0 0.0167116f
r43 20 23 5.85
r44 17 20 82.9714
r45 16 17 95.0857
r46 12 16 0.803571
r47 12 13 88.2939
r48 10 13 1.14
r49 9 13 1.14
r50 5 23 3.06959
r51 5 7 31.59
r52 1 23 3.06959
r53 1 3 25.35
.ends

.subckt PM_CPU_BONUS%XI13/XI3/NET5 3 7 9 10 16 17 23
c37 23 0 0.012397f
c38 17 0 0.00209459f
c39 16 0 0.00784885f
c40 9 0 0.0172106f
c41 7 0 0.0228518f
c42 3 0 0.0167116f
r43 20 23 5.85
r44 17 20 82.9714
r45 16 17 95.0857
r46 12 16 0.803571
r47 12 13 88.2939
r48 10 13 1.14
r49 9 13 1.14
r50 5 23 3.06959
r51 5 7 31.59
r52 1 23 3.06959
r53 1 3 25.35
.ends

.subckt PM_CPU_BONUS%XI13/XI2/NET5 3 7 9 10 16 17 23
c37 23 0 0.012397f
c38 17 0 0.00209459f
c39 16 0 0.00784885f
c40 9 0 0.0172106f
c41 7 0 0.0228518f
c42 3 0 0.0167116f
r43 20 23 5.85
r44 17 20 82.9714
r45 16 17 95.0857
r46 12 16 0.803571
r47 12 13 88.2939
r48 10 13 1.14
r49 9 13 1.14
r50 5 23 3.06959
r51 5 7 31.59
r52 1 23 3.06959
r53 1 3 25.35
.ends

.subckt PM_CPU_BONUS%XI13/XI1/NET5 3 7 9 10 16 17 23
c37 23 0 0.012397f
c38 17 0 0.00209459f
c39 16 0 0.00784885f
c40 9 0 0.0172106f
c41 7 0 0.0228518f
c42 3 0 0.0167116f
r43 20 23 5.85
r44 17 20 82.9714
r45 16 17 95.0857
r46 12 16 0.803571
r47 12 13 88.2939
r48 10 13 1.14
r49 9 13 1.14
r50 5 23 3.06959
r51 5 7 31.59
r52 1 23 3.06959
r53 1 3 25.35
.ends

.subckt PM_CPU_BONUS%XI13/XI0/NET5 3 7 9 10 16 17 23
c32 23 0 0.012397f
c33 17 0 0.00239241f
c34 16 0 0.00784885f
c35 9 0 0.0172106f
c36 7 0 0.0228518f
c37 3 0 0.0167116f
r38 20 23 5.85
r39 17 20 82.9714
r40 16 17 95.0857
r41 12 16 0.803571
r42 12 13 88.2939
r43 10 13 1.14
r44 9 13 1.14
r45 5 23 3.06959
r46 5 7 31.59
r47 1 23 3.06959
r48 1 3 25.35
.ends

.subckt PM_CPU_BONUS%XI14/XI7/NET5 3 7 9 10 16 17 23
c36 23 0 0.0123768f
c37 17 0 0.00238259f
c38 16 0 0.00779955f
c39 9 0 0.0172106f
c40 7 0 0.0228518f
c41 3 0 0.0167116f
r42 20 23 5.85
r43 17 20 82.9714
r44 16 17 95.0857
r45 12 16 0.803571
r46 12 13 88.2939
r47 10 13 1.14
r48 9 13 1.14
r49 5 23 3.06959
r50 5 7 31.59
r51 1 23 3.06959
r52 1 3 25.35
.ends

.subckt PM_CPU_BONUS%XI14/XI6/NET5 3 7 9 10 16 17 23
c37 23 0 0.012397f
c38 17 0 0.00209459f
c39 16 0 0.00784885f
c40 9 0 0.0172106f
c41 7 0 0.0228518f
c42 3 0 0.0167116f
r43 20 23 5.85
r44 17 20 82.9714
r45 16 17 95.0857
r46 12 16 0.803571
r47 12 13 88.2939
r48 10 13 1.14
r49 9 13 1.14
r50 5 23 3.06959
r51 5 7 31.59
r52 1 23 3.06959
r53 1 3 25.35
.ends

.subckt PM_CPU_BONUS%XI14/XI5/NET5 3 7 9 10 16 17 23
c37 23 0 0.012397f
c38 17 0 0.0021965f
c39 16 0 0.00784885f
c40 9 0 0.0172106f
c41 7 0 0.0228518f
c42 3 0 0.0167116f
r43 20 23 5.85
r44 17 20 82.9714
r45 16 17 95.0857
r46 12 16 0.803571
r47 12 13 88.2939
r48 10 13 1.14
r49 9 13 1.14
r50 5 23 3.06959
r51 5 7 31.59
r52 1 23 3.06959
r53 1 3 25.35
.ends

.subckt PM_CPU_BONUS%XI14/XI4/NET5 3 7 9 10 16 17 23
c45 23 0 0.012223f
c46 17 0 0.00196842f
c47 16 0 0.00375904f
c48 9 0 0.0155071f
c49 7 0 0.0221205f
c50 3 0 0.0159746f
r51 20 23 5.85
r52 17 20 82.9714
r53 16 17 95.0857
r54 12 16 0.803571
r55 12 13 88.2939
r56 10 13 1.14
r57 9 13 1.14
r58 5 23 3.06959
r59 5 7 31.59
r60 1 23 3.06959
r61 1 3 25.35
.ends

.subckt PM_CPU_BONUS%XI14/XI3/NET5 3 7 9 10 16 17 23
c46 23 0 0.0123427f
c47 17 0 0.00199546f
c48 16 0 0.00219137f
c49 9 0 0.0154097f
c50 7 0 0.021642f
c51 3 0 0.0158105f
r52 20 23 5.85
r53 17 20 82.9714
r54 16 17 95.0857
r55 12 16 0.803571
r56 12 13 88.2939
r57 10 13 1.14
r58 9 13 1.14
r59 5 23 3.06959
r60 5 7 31.59
r61 1 23 3.06959
r62 1 3 25.35
.ends

.subckt PM_CPU_BONUS%XI14/XI2/NET5 3 7 9 10 16 17 23
c44 23 0 0.0119533f
c45 17 0 0.00210407f
c46 16 0 0.00382522f
c47 9 0 0.0155948f
c48 7 0 0.0224366f
c49 3 0 0.0158847f
r50 20 23 5.85
r51 17 20 82.9714
r52 16 17 95.0857
r53 12 16 0.803571
r54 12 13 88.2939
r55 10 13 1.14
r56 9 13 1.14
r57 5 23 3.06959
r58 5 7 31.59
r59 1 23 3.06959
r60 1 3 25.35
.ends

.subckt PM_CPU_BONUS%XI14/XI1/NET5 3 7 9 10 16 17 23
c36 23 0 0.0123936f
c37 17 0 0.00202502f
c38 16 0 0.0078419f
c39 9 0 0.0172106f
c40 7 0 0.0228518f
c41 3 0 0.0167116f
r42 20 23 5.85
r43 17 20 82.9714
r44 16 17 95.0857
r45 12 16 0.803571
r46 12 13 88.2939
r47 10 13 1.14
r48 9 13 1.14
r49 5 23 3.06959
r50 5 7 31.59
r51 1 23 3.06959
r52 1 3 25.35
.ends

.subckt PM_CPU_BONUS%XI14/XI0/NET5 3 7 9 10 16 17 23
c35 23 0 0.0123768f
c36 17 0 0.00227573f
c37 16 0 0.00779955f
c38 9 0 0.0172106f
c39 7 0 0.0228518f
c40 3 0 0.0167116f
r41 20 23 5.85
r42 17 20 82.9714
r43 16 17 95.0857
r44 12 16 0.803571
r45 12 13 88.2939
r46 10 13 1.14
r47 9 13 1.14
r48 5 23 3.06959
r49 5 7 31.59
r50 1 23 3.06959
r51 1 3 25.35
.ends

.subckt PM_CPU_BONUS%XI10/XI0/XI7/NET1 3 7 9 10 16 17 22
c50 22 0 0.0104759f
c51 17 0 0.00367393f
c52 16 0 0.00899776f
c53 9 0 0.0421999f
c54 7 0 0.0281956f
c55 3 0 0.0559403f
r56 19 22 5.85
r57 17 22 82.9714
r58 16 17 95.0857
r59 12 16 2.05357
r60 12 13 88.2939
r61 10 13 2.06014
r62 9 13 4.83143
r63 5 19 3.06959
r64 5 7 58.11
r65 1 19 3.06959
r66 1 3 138.45
.ends

.subckt PM_CPU_BONUS%XI10/XI0/XI7/NET2 3 7 9 10 11 17 18 25 31
c84 31 0 0.0115099f
c85 25 0 0.0122368f
c86 18 0 0.00376366f
c87 17 0 0.0397946f
c88 11 0 0.00796616f
c89 9 0 0.0472008f
c90 7 0 0.0478364f
c91 3 0 0.0318953f
r92 28 31 5.85
r93 25 26 88.2939
r94 21 25 1.42857
r95 21 22 88.2939
r96 18 31 82.9714
r97 17 18 95.0857
r98 13 17 5.625
r99 13 14 88.2939
r100 11 26 0.800714
r101 10 22 0.800714
r102 10 14 4.57086
r103 9 14 2.32071
r104 5 28 3.06959
r105 5 7 130.26
r106 1 28 3.06959
r107 1 3 66.3
.ends

.subckt PM_CPU_BONUS%XI10/XI0/XI7/NET3 3 7 9 10 11 17 18 25 31
c82 31 0 0.00928564f
c83 25 0 0.012002f
c84 18 0 0.00261588f
c85 17 0 0.0129108f
c86 11 0 0.0083884f
c87 9 0 0.0516561f
c88 7 0 0.0381287f
c89 3 0 0.0449311f
r90 28 31 3.9
r91 21 25 1.42857
r92 18 31 82.9714
r93 17 18 95.0857
r94 13 17 2.67857
r95 13 14 88.2939
r96 11 25 88.2939
r97 10 14 3.05086
r98 10 21 88.2939
r99 9 14 3.84071
r100 5 28 3.06959
r101 5 7 86.58
r102 1 28 3.06959
r103 1 3 109.98
.ends

.subckt PM_CPU_BONUS%XI10/XI0/XI6/NET1 3 7 9 10 16 17 22
c54 22 0 0.0106506f
c55 17 0 0.00319274f
c56 16 0 0.00572752f
c57 9 0 0.0302564f
c58 7 0 0.0281956f
c59 3 0 0.0567133f
r60 19 22 5.85
r61 17 22 82.9714
r62 16 17 95.0857
r63 12 16 2.05357
r64 12 13 88.2939
r65 10 13 2.06014
r66 9 13 4.83143
r67 5 19 3.06959
r68 5 7 58.11
r69 1 19 3.06959
r70 1 3 138.45
.ends

.subckt PM_CPU_BONUS%XI10/XI0/XI6/NET2 3 7 9 10 11 17 18 25 31
c90 31 0 0.0110623f
c91 25 0 0.0103688f
c92 18 0 0.0030098f
c93 17 0 0.0388554f
c94 11 0 0.00739676f
c95 9 0 0.0384219f
c96 7 0 0.0476989f
c97 3 0 0.0289803f
r98 28 31 5.85
r99 25 26 88.2939
r100 21 25 1.42857
r101 21 22 88.2939
r102 18 31 82.9714
r103 17 18 95.0857
r104 13 17 5.625
r105 13 14 88.2939
r106 11 26 0.800714
r107 10 22 0.800714
r108 10 14 4.57086
r109 9 14 2.32071
r110 5 28 3.06959
r111 5 7 130.26
r112 1 28 3.06959
r113 1 3 66.3
.ends

.subckt PM_CPU_BONUS%XI10/XI0/XI6/NET3 3 7 9 10 11 17 18 25 31
c83 31 0 0.00912591f
c84 25 0 0.0103336f
c85 18 0 0.00261588f
c86 17 0 0.0115817f
c87 11 0 0.00787375f
c88 9 0 0.0476199f
c89 7 0 0.0381287f
c90 3 0 0.0460265f
r91 28 31 3.9
r92 21 25 1.42857
r93 18 31 82.9714
r94 17 18 95.0857
r95 13 17 2.67857
r96 13 14 88.2939
r97 11 25 88.2939
r98 10 14 3.05086
r99 10 21 88.2939
r100 9 14 3.84071
r101 5 28 3.06959
r102 5 7 86.58
r103 1 28 3.06959
r104 1 3 109.98
.ends

.subckt PM_CPU_BONUS%XI10/XI0/XI5/NET1 3 7 9 10 16 17 22
c54 22 0 0.0106506f
c55 17 0 0.00319274f
c56 16 0 0.00572752f
c57 9 0 0.0282125f
c58 7 0 0.0281956f
c59 3 0 0.0567133f
r60 19 22 5.85
r61 17 22 82.9714
r62 16 17 95.0857
r63 12 16 2.05357
r64 12 13 88.2939
r65 10 13 2.06014
r66 9 13 4.83143
r67 5 19 3.06959
r68 5 7 58.11
r69 1 19 3.06959
r70 1 3 138.45
.ends

.subckt PM_CPU_BONUS%XI10/XI0/XI5/NET2 3 7 9 10 11 17 18 25 31
c91 31 0 0.0110623f
c92 25 0 0.0103688f
c93 18 0 0.0030098f
c94 17 0 0.0363497f
c95 11 0 0.00739676f
c96 9 0 0.0330145f
c97 7 0 0.0476989f
c98 3 0 0.0289803f
r99 28 31 5.85
r100 25 26 88.2939
r101 21 25 1.42857
r102 21 22 88.2939
r103 18 31 82.9714
r104 17 18 95.0857
r105 13 17 5.625
r106 13 14 88.2939
r107 11 26 0.800714
r108 10 22 0.800714
r109 10 14 4.57086
r110 9 14 2.32071
r111 5 28 3.06959
r112 5 7 130.26
r113 1 28 3.06959
r114 1 3 66.3
.ends

.subckt PM_CPU_BONUS%XI10/XI0/XI5/NET3 3 7 9 10 11 17 18 25 31
c84 31 0 0.00882214f
c85 25 0 0.0103336f
c86 18 0 0.00275983f
c87 17 0 0.0115195f
c88 11 0 0.00768722f
c89 9 0 0.0391166f
c90 7 0 0.0381287f
c91 3 0 0.0458384f
r92 28 31 3.9
r93 21 25 1.42857
r94 18 31 82.9714
r95 17 18 95.0857
r96 13 17 2.67857
r97 13 14 88.2939
r98 11 25 88.2939
r99 10 14 3.05086
r100 10 21 88.2939
r101 9 14 3.84071
r102 5 28 3.06959
r103 5 7 86.58
r104 1 28 3.06959
r105 1 3 109.98
.ends

.subckt PM_CPU_BONUS%XI10/XI0/XI4/NET1 3 7 9 10 16 17 22
c54 22 0 0.0106506f
c55 17 0 0.00319274f
c56 16 0 0.00572752f
c57 9 0 0.0282125f
c58 7 0 0.0281956f
c59 3 0 0.0567133f
r60 19 22 5.85
r61 17 22 82.9714
r62 16 17 95.0857
r63 12 16 2.05357
r64 12 13 88.2939
r65 10 13 2.06014
r66 9 13 4.83143
r67 5 19 3.06959
r68 5 7 58.11
r69 1 19 3.06959
r70 1 3 138.45
.ends

.subckt PM_CPU_BONUS%XI10/XI0/XI4/NET2 3 7 9 10 11 17 18 25 31
c93 31 0 0.0110623f
c94 25 0 0.0105466f
c95 18 0 0.00312619f
c96 17 0 0.0354855f
c97 11 0 0.00739676f
c98 9 0 0.0330145f
c99 7 0 0.0476989f
c100 3 0 0.0289803f
r101 28 31 5.85
r102 25 26 88.2939
r103 21 25 1.42857
r104 21 22 88.2939
r105 18 31 82.9714
r106 17 18 95.0857
r107 13 17 5.625
r108 13 14 88.2939
r109 11 26 0.800714
r110 10 22 0.800714
r111 10 14 4.57086
r112 9 14 2.32071
r113 5 28 3.06959
r114 5 7 130.26
r115 1 28 3.06959
r116 1 3 66.3
.ends

.subckt PM_CPU_BONUS%XI10/XI0/XI4/NET3 3 7 9 10 11 17 18 25 31
c86 31 0 0.00881621f
c87 25 0 0.00994266f
c88 18 0 0.00275983f
c89 17 0 0.0116179f
c90 11 0 0.00777896f
c91 9 0 0.0347723f
c92 7 0 0.0381287f
c93 3 0 0.0460265f
r94 28 31 3.9
r95 21 25 1.42857
r96 18 31 82.9714
r97 17 18 95.0857
r98 13 17 2.67857
r99 13 14 88.2939
r100 11 25 88.2939
r101 10 14 3.05086
r102 10 21 88.2939
r103 9 14 3.84071
r104 5 28 3.06959
r105 5 7 86.58
r106 1 28 3.06959
r107 1 3 109.98
.ends

.subckt PM_CPU_BONUS%XI10/XI0/XI3/NET1 3 7 9 10 16 17 22
c61 22 0 0.0105497f
c62 17 0 0.00306038f
c63 16 0 0.00522598f
c64 9 0 0.0290811f
c65 7 0 0.0281956f
c66 3 0 0.0562468f
r67 19 22 5.85
r68 17 22 82.9714
r69 16 17 95.0857
r70 12 16 2.05357
r71 12 13 88.2939
r72 10 13 2.06014
r73 9 13 4.83143
r74 5 19 3.06959
r75 5 7 58.11
r76 1 19 3.06959
r77 1 3 138.45
.ends

.subckt PM_CPU_BONUS%XI10/XI0/XI3/NET2 3 7 9 10 11 17 18 25 31
c97 31 0 0.0111392f
c98 25 0 0.0105466f
c99 18 0 0.00312619f
c100 17 0 0.0325763f
c101 11 0 0.00739676f
c102 9 0 0.0335899f
c103 7 0 0.0475972f
c104 3 0 0.0289803f
r105 28 31 5.85
r106 25 26 88.2939
r107 21 25 1.42857
r108 21 22 88.2939
r109 18 31 82.9714
r110 17 18 95.0857
r111 13 17 5.625
r112 13 14 88.2939
r113 11 26 0.800714
r114 10 22 0.800714
r115 10 14 4.57086
r116 9 14 2.32071
r117 5 28 3.06959
r118 5 7 130.26
r119 1 28 3.06959
r120 1 3 66.3
.ends

.subckt PM_CPU_BONUS%XI10/XI0/XI3/NET3 3 7 9 10 11 17 18 25 31
c98 31 0 0.00859503f
c99 25 0 0.00733007f
c100 18 0 0.002847f
c101 17 0 0.00872244f
c102 11 0 0.00759979f
c103 9 0 0.0368308f
c104 7 0 0.0345758f
c105 3 0 0.0455356f
r106 28 31 3.9
r107 21 25 1.42857
r108 18 31 82.9714
r109 17 18 95.0857
r110 13 17 2.67857
r111 13 14 88.2939
r112 11 25 88.2939
r113 10 14 3.05086
r114 10 21 88.2939
r115 9 14 3.84071
r116 5 28 3.06959
r117 5 7 86.58
r118 1 28 3.06959
r119 1 3 109.98
.ends

.subckt PM_CPU_BONUS%XI10/XI0/XI2/NET1 3 7 9 10 16 17 22
c56 22 0 0.0106506f
c57 17 0 0.00319274f
c58 16 0 0.0052991f
c59 9 0 0.0289756f
c60 7 0 0.0275329f
c61 3 0 0.0567133f
r62 19 22 5.85
r63 17 22 82.9714
r64 16 17 95.0857
r65 12 16 2.05357
r66 12 13 88.2939
r67 10 13 2.06014
r68 9 13 4.83143
r69 5 19 3.06959
r70 5 7 58.11
r71 1 19 3.06959
r72 1 3 138.45
.ends

.subckt PM_CPU_BONUS%XI10/XI0/XI2/NET2 3 7 9 10 11 17 18 25 31
c99 31 0 0.0110485f
c100 25 0 0.00960851f
c101 18 0 0.00312619f
c102 17 0 0.0344195f
c103 11 0 0.00782073f
c104 9 0 0.0338003f
c105 7 0 0.0474868f
c106 3 0 0.0289803f
r107 28 31 5.85
r108 25 26 88.2939
r109 21 25 1.42857
r110 21 22 88.2939
r111 18 31 82.9714
r112 17 18 95.0857
r113 13 17 5.625
r114 13 14 88.2939
r115 11 26 0.800714
r116 10 22 0.800714
r117 10 14 4.57086
r118 9 14 2.32071
r119 5 28 3.06959
r120 5 7 130.26
r121 1 28 3.06959
r122 1 3 66.3
.ends

.subckt PM_CPU_BONUS%XI10/XI0/XI2/NET3 3 7 9 10 11 17 18 25 31
c101 31 0 0.0085937f
c102 25 0 0.00713832f
c103 18 0 0.00283022f
c104 17 0 0.0094538f
c105 11 0 0.00793581f
c106 9 0 0.0366583f
c107 7 0 0.0344168f
c108 3 0 0.0415167f
r109 28 31 3.9
r110 21 25 1.42857
r111 18 31 82.9714
r112 17 18 95.0857
r113 13 17 2.67857
r114 13 14 88.2939
r115 11 25 88.2939
r116 10 14 3.05086
r117 10 21 88.2939
r118 9 14 3.84071
r119 5 28 3.06959
r120 5 7 86.58
r121 1 28 3.06959
r122 1 3 109.98
.ends

.subckt PM_CPU_BONUS%XI10/XI0/XI1/NET1 3 7 9 10 16 17 22
c56 22 0 0.0106506f
c57 17 0 0.00318871f
c58 16 0 0.00572752f
c59 9 0 0.0282125f
c60 7 0 0.0281956f
c61 3 0 0.0567133f
r62 19 22 5.85
r63 17 22 82.9714
r64 16 17 95.0857
r65 12 16 2.05357
r66 12 13 88.2939
r67 10 13 2.06014
r68 9 13 4.83143
r69 5 19 3.06959
r70 5 7 58.11
r71 1 19 3.06959
r72 1 3 138.45
.ends

.subckt PM_CPU_BONUS%XI10/XI0/XI1/NET2 3 7 9 10 11 17 18 25 31
c96 31 0 0.0110623f
c97 25 0 0.00681363f
c98 18 0 0.00312619f
c99 17 0 0.0332997f
c100 11 0 0.00739676f
c101 9 0 0.0330145f
c102 7 0 0.0476989f
c103 3 0 0.0289803f
r104 28 31 5.85
r105 25 26 88.2939
r106 21 25 1.42857
r107 21 22 88.2939
r108 18 31 82.9714
r109 17 18 95.0857
r110 13 17 5.625
r111 13 14 88.2939
r112 11 26 0.800714
r113 10 22 0.800714
r114 10 14 4.57086
r115 9 14 2.32071
r116 5 28 3.06959
r117 5 7 130.26
r118 1 28 3.06959
r119 1 3 66.3
.ends

.subckt PM_CPU_BONUS%XI10/XI0/XI1/NET3 3 7 9 10 11 17 18 25 31
c97 31 0 0.0085937f
c98 25 0 0.00490919f
c99 18 0 0.00283022f
c100 17 0 0.00957849f
c101 11 0 0.00751844f
c102 9 0 0.0362623f
c103 7 0 0.0346289f
c104 3 0 0.0415167f
r105 28 31 3.9
r106 21 25 1.42857
r107 18 31 82.9714
r108 17 18 95.0857
r109 13 17 2.67857
r110 13 14 88.2939
r111 11 25 88.2939
r112 10 14 3.05086
r113 10 21 88.2939
r114 9 14 3.84071
r115 5 28 3.06959
r116 5 7 86.58
r117 1 28 3.06959
r118 1 3 109.98
.ends

.subckt PM_CPU_BONUS%XI10/XI0/XI0/NET1 3 7 9 10 16 17 22
c55 22 0 0.0105958f
c56 17 0 0.00317569f
c57 16 0 0.00572752f
c58 9 0 0.0297111f
c59 7 0 0.0281956f
c60 3 0 0.0567133f
r61 19 22 5.85
r62 17 22 82.9714
r63 16 17 95.0857
r64 12 16 2.05357
r65 12 13 88.2939
r66 10 13 2.06014
r67 9 13 4.83143
r68 5 19 3.06959
r69 5 7 58.11
r70 1 19 3.06959
r71 1 3 138.45
.ends

.subckt PM_CPU_BONUS%XI10/XI0/XI0/NET2 3 7 9 10 11 17 18 25 31
c97 31 0 0.0110623f
c98 25 0 0.00866093f
c99 18 0 0.00320643f
c100 17 0 0.0323924f
c101 11 0 0.00830803f
c102 9 0 0.0344193f
c103 7 0 0.0476989f
c104 3 0 0.0289803f
r105 28 31 5.85
r106 25 26 88.2939
r107 21 25 1.42857
r108 21 22 88.2939
r109 18 31 82.9714
r110 17 18 95.0857
r111 13 17 5.625
r112 13 14 88.2939
r113 11 26 0.800714
r114 10 22 0.800714
r115 10 14 4.57086
r116 9 14 2.32071
r117 5 28 3.06959
r118 5 7 130.26
r119 1 28 3.06959
r120 1 3 66.3
.ends

.subckt PM_CPU_BONUS%XI10/XI0/XI0/NET3 3 7 9 10 11 17 18 25 31
c100 31 0 0.0085937f
c101 25 0 0.00705503f
c102 18 0 0.00309931f
c103 17 0 0.00954765f
c104 11 0 0.00763527f
c105 9 0 0.0361196f
c106 7 0 0.0346289f
c107 3 0 0.0416961f
r108 28 31 3.9
r109 21 25 1.42857
r110 18 31 82.9714
r111 17 18 95.0857
r112 13 17 2.67857
r113 13 14 88.2939
r114 11 25 88.2939
r115 10 14 3.05086
r116 10 21 88.2939
r117 9 14 3.84071
r118 5 28 3.06959
r119 5 7 86.58
r120 1 28 3.06959
r121 1 3 109.98
.ends

.subckt PM_CPU_BONUS%XI5/XI39/XI7/NET1 3 7 9 10 16 17 22
c51 22 0 0.0104759f
c52 17 0 0.00347381f
c53 16 0 0.0062447f
c54 9 0 0.0310963f
c55 7 0 0.0281956f
c56 3 0 0.0559688f
r57 19 22 5.85
r58 17 22 82.9714
r59 16 17 95.0857
r60 12 16 2.05357
r61 12 13 88.2939
r62 10 13 2.06014
r63 9 13 4.83143
r64 5 19 3.06959
r65 5 7 58.11
r66 1 19 3.06959
r67 1 3 138.45
.ends

.subckt PM_CPU_BONUS%XI5/XI39/XI7/NET2 3 7 9 10 11 17 18 25 31
c76 31 0 0.0113122f
c77 25 0 0.0122368f
c78 18 0 0.00381856f
c79 17 0 0.0337861f
c80 11 0 0.00796616f
c81 9 0 0.043322f
c82 7 0 0.0530396f
c83 3 0 0.0326684f
r84 28 31 5.85
r85 25 26 88.2939
r86 21 25 1.42857
r87 21 22 88.2939
r88 18 31 82.9714
r89 17 18 95.0857
r90 13 17 5.625
r91 13 14 88.2939
r92 11 26 0.800714
r93 10 22 0.800714
r94 10 14 4.57086
r95 9 14 2.32071
r96 5 28 3.06959
r97 5 7 130.26
r98 1 28 3.06959
r99 1 3 66.3
.ends

.subckt PM_CPU_BONUS%XI5/XI39/XI7/NET3 3 7 9 10 11 17 18 25 31
c77 31 0 0.00905473f
c78 25 0 0.012002f
c79 18 0 0.00298594f
c80 17 0 0.0136321f
c81 11 0 0.00887262f
c82 9 0 0.0524181f
c83 7 0 0.0381287f
c84 3 0 0.0460033f
r85 28 31 3.9
r86 21 25 1.42857
r87 18 31 82.9714
r88 17 18 95.0857
r89 13 17 2.67857
r90 13 14 88.2939
r91 11 25 88.2939
r92 10 14 3.05086
r93 10 21 88.2939
r94 9 14 3.84071
r95 5 28 3.06959
r96 5 7 86.58
r97 1 28 3.06959
r98 1 3 109.98
.ends

.subckt PM_CPU_BONUS%XI5/XI39/XI6/NET1 3 7 9 10 16 17 22
c53 22 0 0.0104759f
c54 17 0 0.00339339f
c55 16 0 0.0062447f
c56 9 0 0.0326788f
c57 7 0 0.0281956f
c58 3 0 0.0559688f
r59 19 22 5.85
r60 17 22 82.9714
r61 16 17 95.0857
r62 12 16 2.05357
r63 12 13 88.2939
r64 10 13 2.06014
r65 9 13 4.83143
r66 5 19 3.06959
r67 5 7 58.11
r68 1 19 3.06959
r69 1 3 138.45
.ends

.subckt PM_CPU_BONUS%XI5/XI39/XI6/NET2 3 7 9 10 11 17 18 25 31
c78 31 0 0.0113122f
c79 25 0 0.0122368f
c80 18 0 0.00381856f
c81 17 0 0.0337861f
c82 11 0 0.00796616f
c83 9 0 0.043322f
c84 7 0 0.0530396f
c85 3 0 0.0326684f
r86 28 31 5.85
r87 25 26 88.2939
r88 21 25 1.42857
r89 21 22 88.2939
r90 18 31 82.9714
r91 17 18 95.0857
r92 13 17 5.625
r93 13 14 88.2939
r94 11 26 0.800714
r95 10 22 0.800714
r96 10 14 4.57086
r97 9 14 2.32071
r98 5 28 3.06959
r99 5 7 130.26
r100 1 28 3.06959
r101 1 3 66.3
.ends

.subckt PM_CPU_BONUS%XI5/XI39/XI6/NET3 3 7 9 10 11 17 18 25 31
c77 31 0 0.00905473f
c78 25 0 0.012002f
c79 18 0 0.00298594f
c80 17 0 0.0136321f
c81 11 0 0.00887262f
c82 9 0 0.0524181f
c83 7 0 0.0381287f
c84 3 0 0.0460033f
r85 28 31 3.9
r86 21 25 1.42857
r87 18 31 82.9714
r88 17 18 95.0857
r89 13 17 2.67857
r90 13 14 88.2939
r91 11 25 88.2939
r92 10 14 3.05086
r93 10 21 88.2939
r94 9 14 3.84071
r95 5 28 3.06959
r96 5 7 86.58
r97 1 28 3.06959
r98 1 3 109.98
.ends

.subckt PM_CPU_BONUS%XI5/XI39/XI5/NET1 3 7 9 10 16 17 22
c53 22 0 0.0104759f
c54 17 0 0.00339339f
c55 16 0 0.0062447f
c56 9 0 0.0326788f
c57 7 0 0.0281956f
c58 3 0 0.0559688f
r59 19 22 5.85
r60 17 22 82.9714
r61 16 17 95.0857
r62 12 16 2.05357
r63 12 13 88.2939
r64 10 13 2.06014
r65 9 13 4.83143
r66 5 19 3.06959
r67 5 7 58.11
r68 1 19 3.06959
r69 1 3 138.45
.ends

.subckt PM_CPU_BONUS%XI5/XI39/XI5/NET2 3 7 9 10 11 17 18 25 31
c78 31 0 0.0113122f
c79 25 0 0.0122368f
c80 18 0 0.00381856f
c81 17 0 0.0337861f
c82 11 0 0.00796616f
c83 9 0 0.043322f
c84 7 0 0.0530396f
c85 3 0 0.0326684f
r86 28 31 5.85
r87 25 26 88.2939
r88 21 25 1.42857
r89 21 22 88.2939
r90 18 31 82.9714
r91 17 18 95.0857
r92 13 17 5.625
r93 13 14 88.2939
r94 11 26 0.800714
r95 10 22 0.800714
r96 10 14 4.57086
r97 9 14 2.32071
r98 5 28 3.06959
r99 5 7 130.26
r100 1 28 3.06959
r101 1 3 66.3
.ends

.subckt PM_CPU_BONUS%XI5/XI39/XI5/NET3 3 7 9 10 11 17 18 25 31
c77 31 0 0.00905473f
c78 25 0 0.012002f
c79 18 0 0.00298594f
c80 17 0 0.0136321f
c81 11 0 0.00887262f
c82 9 0 0.0524181f
c83 7 0 0.0381287f
c84 3 0 0.0460033f
r85 28 31 3.9
r86 21 25 1.42857
r87 18 31 82.9714
r88 17 18 95.0857
r89 13 17 2.67857
r90 13 14 88.2939
r91 11 25 88.2939
r92 10 14 3.05086
r93 10 21 88.2939
r94 9 14 3.84071
r95 5 28 3.06959
r96 5 7 86.58
r97 1 28 3.06959
r98 1 3 109.98
.ends

.subckt PM_CPU_BONUS%XI5/XI39/XI4/NET1 3 7 9 10 16 17 22
c53 22 0 0.0104759f
c54 17 0 0.00339339f
c55 16 0 0.0062447f
c56 9 0 0.0326788f
c57 7 0 0.0281956f
c58 3 0 0.0559688f
r59 19 22 5.85
r60 17 22 82.9714
r61 16 17 95.0857
r62 12 16 2.05357
r63 12 13 88.2939
r64 10 13 2.06014
r65 9 13 4.83143
r66 5 19 3.06959
r67 5 7 58.11
r68 1 19 3.06959
r69 1 3 138.45
.ends

.subckt PM_CPU_BONUS%XI5/XI39/XI4/NET2 3 7 9 10 11 17 18 25 31
c78 31 0 0.0113122f
c79 25 0 0.0122368f
c80 18 0 0.00381856f
c81 17 0 0.0337861f
c82 11 0 0.00796616f
c83 9 0 0.043322f
c84 7 0 0.0530396f
c85 3 0 0.0326684f
r86 28 31 5.85
r87 25 26 88.2939
r88 21 25 1.42857
r89 21 22 88.2939
r90 18 31 82.9714
r91 17 18 95.0857
r92 13 17 5.625
r93 13 14 88.2939
r94 11 26 0.800714
r95 10 22 0.800714
r96 10 14 4.57086
r97 9 14 2.32071
r98 5 28 3.06959
r99 5 7 130.26
r100 1 28 3.06959
r101 1 3 66.3
.ends

.subckt PM_CPU_BONUS%XI5/XI39/XI4/NET3 3 7 9 10 11 17 18 25 31
c77 31 0 0.00905473f
c78 25 0 0.012002f
c79 18 0 0.00298594f
c80 17 0 0.0136321f
c81 11 0 0.00887262f
c82 9 0 0.0524181f
c83 7 0 0.0381287f
c84 3 0 0.0460033f
r85 28 31 3.9
r86 21 25 1.42857
r87 18 31 82.9714
r88 17 18 95.0857
r89 13 17 2.67857
r90 13 14 88.2939
r91 11 25 88.2939
r92 10 14 3.05086
r93 10 21 88.2939
r94 9 14 3.84071
r95 5 28 3.06959
r96 5 7 86.58
r97 1 28 3.06959
r98 1 3 109.98
.ends

.subckt PM_CPU_BONUS%XI5/XI39/XI3/NET1 3 7 9 10 16 17 22
c53 22 0 0.0104759f
c54 17 0 0.00339339f
c55 16 0 0.0062447f
c56 9 0 0.0326788f
c57 7 0 0.0281956f
c58 3 0 0.0559688f
r59 19 22 5.85
r60 17 22 82.9714
r61 16 17 95.0857
r62 12 16 2.05357
r63 12 13 88.2939
r64 10 13 2.06014
r65 9 13 4.83143
r66 5 19 3.06959
r67 5 7 58.11
r68 1 19 3.06959
r69 1 3 138.45
.ends

.subckt PM_CPU_BONUS%XI5/XI39/XI3/NET2 3 7 9 10 11 17 18 25 31
c78 31 0 0.0113122f
c79 25 0 0.0122368f
c80 18 0 0.00381856f
c81 17 0 0.0337861f
c82 11 0 0.00796616f
c83 9 0 0.043322f
c84 7 0 0.0530396f
c85 3 0 0.0326684f
r86 28 31 5.85
r87 25 26 88.2939
r88 21 25 1.42857
r89 21 22 88.2939
r90 18 31 82.9714
r91 17 18 95.0857
r92 13 17 5.625
r93 13 14 88.2939
r94 11 26 0.800714
r95 10 22 0.800714
r96 10 14 4.57086
r97 9 14 2.32071
r98 5 28 3.06959
r99 5 7 130.26
r100 1 28 3.06959
r101 1 3 66.3
.ends

.subckt PM_CPU_BONUS%XI5/XI39/XI3/NET3 3 7 9 10 11 17 18 25 31
c77 31 0 0.00905473f
c78 25 0 0.012002f
c79 18 0 0.00298594f
c80 17 0 0.0136321f
c81 11 0 0.00887262f
c82 9 0 0.0524181f
c83 7 0 0.0381287f
c84 3 0 0.0460033f
r85 28 31 3.9
r86 21 25 1.42857
r87 18 31 82.9714
r88 17 18 95.0857
r89 13 17 2.67857
r90 13 14 88.2939
r91 11 25 88.2939
r92 10 14 3.05086
r93 10 21 88.2939
r94 9 14 3.84071
r95 5 28 3.06959
r96 5 7 86.58
r97 1 28 3.06959
r98 1 3 109.98
.ends

.subckt PM_CPU_BONUS%XI5/XI39/XI2/NET1 3 7 9 10 16 17 22
c53 22 0 0.0104759f
c54 17 0 0.00339339f
c55 16 0 0.0062447f
c56 9 0 0.0326788f
c57 7 0 0.0281956f
c58 3 0 0.0559688f
r59 19 22 5.85
r60 17 22 82.9714
r61 16 17 95.0857
r62 12 16 2.05357
r63 12 13 88.2939
r64 10 13 2.06014
r65 9 13 4.83143
r66 5 19 3.06959
r67 5 7 58.11
r68 1 19 3.06959
r69 1 3 138.45
.ends

.subckt PM_CPU_BONUS%XI5/XI39/XI2/NET2 3 7 9 10 11 17 18 25 31
c78 31 0 0.0113122f
c79 25 0 0.0122368f
c80 18 0 0.00381856f
c81 17 0 0.0337861f
c82 11 0 0.00796616f
c83 9 0 0.043322f
c84 7 0 0.0530396f
c85 3 0 0.0326684f
r86 28 31 5.85
r87 25 26 88.2939
r88 21 25 1.42857
r89 21 22 88.2939
r90 18 31 82.9714
r91 17 18 95.0857
r92 13 17 5.625
r93 13 14 88.2939
r94 11 26 0.800714
r95 10 22 0.800714
r96 10 14 4.57086
r97 9 14 2.32071
r98 5 28 3.06959
r99 5 7 130.26
r100 1 28 3.06959
r101 1 3 66.3
.ends

.subckt PM_CPU_BONUS%XI5/XI39/XI2/NET3 3 7 9 10 11 17 18 25 31
c77 31 0 0.00905473f
c78 25 0 0.012002f
c79 18 0 0.00270829f
c80 17 0 0.0136321f
c81 11 0 0.00887262f
c82 9 0 0.0524181f
c83 7 0 0.0381287f
c84 3 0 0.0460033f
r85 28 31 3.9
r86 21 25 1.42857
r87 18 31 82.9714
r88 17 18 95.0857
r89 13 17 2.67857
r90 13 14 88.2939
r91 11 25 88.2939
r92 10 14 3.05086
r93 10 21 88.2939
r94 9 14 3.84071
r95 5 28 3.06959
r96 5 7 86.58
r97 1 28 3.06959
r98 1 3 109.98
.ends

.subckt PM_CPU_BONUS%XI5/XI39/XI1/NET1 3 7 9 10 16 17 22
c53 22 0 0.0104759f
c54 17 0 0.00339339f
c55 16 0 0.0062447f
c56 9 0 0.0326788f
c57 7 0 0.0281956f
c58 3 0 0.0559688f
r59 19 22 5.85
r60 17 22 82.9714
r61 16 17 95.0857
r62 12 16 2.05357
r63 12 13 88.2939
r64 10 13 2.06014
r65 9 13 4.83143
r66 5 19 3.06959
r67 5 7 58.11
r68 1 19 3.06959
r69 1 3 138.45
.ends

.subckt PM_CPU_BONUS%XI5/XI39/XI1/NET2 3 7 9 10 11 17 18 25 31
c78 31 0 0.0113122f
c79 25 0 0.0122368f
c80 18 0 0.00381856f
c81 17 0 0.0337861f
c82 11 0 0.00796616f
c83 9 0 0.043322f
c84 7 0 0.0530396f
c85 3 0 0.0326684f
r86 28 31 5.85
r87 25 26 88.2939
r88 21 25 1.42857
r89 21 22 88.2939
r90 18 31 82.9714
r91 17 18 95.0857
r92 13 17 5.625
r93 13 14 88.2939
r94 11 26 0.800714
r95 10 22 0.800714
r96 10 14 4.57086
r97 9 14 2.32071
r98 5 28 3.06959
r99 5 7 130.26
r100 1 28 3.06959
r101 1 3 66.3
.ends

.subckt PM_CPU_BONUS%XI5/XI39/XI1/NET3 3 7 9 10 11 17 18 25 31
c77 31 0 0.00905473f
c78 25 0 0.012002f
c79 18 0 0.00268515f
c80 17 0 0.0136321f
c81 11 0 0.00848502f
c82 9 0 0.0524181f
c83 7 0 0.0381287f
c84 3 0 0.0460033f
r85 28 31 3.9
r86 21 25 1.42857
r87 18 31 82.9714
r88 17 18 95.0857
r89 13 17 2.67857
r90 13 14 88.2939
r91 11 25 88.2939
r92 10 14 3.05086
r93 10 21 88.2939
r94 9 14 3.84071
r95 5 28 3.06959
r96 5 7 86.58
r97 1 28 3.06959
r98 1 3 109.98
.ends

.subckt PM_CPU_BONUS%XI5/XI39/XI0/NET1 3 7 9 10 16 17 22
c52 22 0 0.0104759f
c53 17 0 0.00339339f
c54 16 0 0.0062447f
c55 9 0 0.0326788f
c56 7 0 0.0281956f
c57 3 0 0.0559688f
r58 19 22 5.85
r59 17 22 82.9714
r60 16 17 95.0857
r61 12 16 2.05357
r62 12 13 88.2939
r63 10 13 2.06014
r64 9 13 4.83143
r65 5 19 3.06959
r66 5 7 58.11
r67 1 19 3.06959
r68 1 3 138.45
.ends

.subckt PM_CPU_BONUS%XI5/XI39/XI0/NET2 3 7 9 10 11 17 18 25 31
c76 31 0 0.0113122f
c77 25 0 0.0122368f
c78 18 0 0.00438098f
c79 17 0 0.0338549f
c80 11 0 0.00796616f
c81 9 0 0.043322f
c82 7 0 0.0530396f
c83 3 0 0.0326684f
r84 28 31 5.85
r85 25 26 88.2939
r86 21 25 1.42857
r87 21 22 88.2939
r88 18 31 82.9714
r89 17 18 95.0857
r90 13 17 5.625
r91 13 14 88.2939
r92 11 26 0.800714
r93 10 22 0.800714
r94 10 14 4.57086
r95 9 14 2.32071
r96 5 28 3.06959
r97 5 7 130.26
r98 1 28 3.06959
r99 1 3 66.3
.ends

.subckt PM_CPU_BONUS%XI5/XI39/XI0/NET3 3 7 9 10 11 17 18 25 31
c75 31 0 0.00905473f
c76 25 0 0.012002f
c77 18 0 0.00275216f
c78 17 0 0.0136321f
c79 11 0 0.00844723f
c80 9 0 0.0524181f
c81 7 0 0.0381287f
c82 3 0 0.0460033f
r83 28 31 3.9
r84 21 25 1.42857
r85 18 31 82.9714
r86 17 18 95.0857
r87 13 17 2.67857
r88 13 14 88.2939
r89 11 25 88.2939
r90 10 14 3.05086
r91 10 21 88.2939
r92 9 14 3.84071
r93 5 28 3.06959
r94 5 7 86.58
r95 1 28 3.06959
r96 1 3 109.98
.ends

.subckt PM_CPU_BONUS%XI9/XI8/XI9/XI7/NET1 3 7 9 10 16 17 22
c52 22 0 0.0104759f
c53 17 0 0.00326227f
c54 16 0 0.010398f
c55 9 0 0.0282049f
c56 7 0 0.0281956f
c57 3 0 0.0559143f
r58 19 22 5.85
r59 17 22 82.9714
r60 16 17 95.0857
r61 12 16 2.05357
r62 12 13 88.2939
r63 10 13 2.06014
r64 9 13 4.83143
r65 5 19 3.06959
r66 5 7 58.11
r67 1 19 3.06959
r68 1 3 138.45
.ends

.subckt PM_CPU_BONUS%XI9/XI8/XI9/XI7/NET2 3 7 9 10 11 17 18 25 31
c96 31 0 0.0112406f
c97 25 0 0.0122368f
c98 18 0 0.00314099f
c99 17 0 0.0312246f
c100 11 0 0.00753453f
c101 9 0 0.0347849f
c102 7 0 0.0481118f
c103 3 0 0.0280814f
r104 28 31 5.85
r105 25 26 88.2939
r106 21 25 1.42857
r107 21 22 88.2939
r108 18 31 82.9714
r109 17 18 95.0857
r110 13 17 5.625
r111 13 14 88.2939
r112 11 26 0.800714
r113 10 22 0.800714
r114 10 14 4.57086
r115 9 14 2.32071
r116 5 28 3.06959
r117 5 7 130.26
r118 1 28 3.06959
r119 1 3 66.3
.ends

.subckt PM_CPU_BONUS%XI9/XI8/XI9/XI7/NET3 3 7 9 10 11 17 18 25 31
c92 31 0 0.00848447f
c93 25 0 0.0103336f
c94 18 0 0.00289777f
c95 17 0 0.0128842f
c96 11 0 0.00841957f
c97 9 0 0.0371905f
c98 7 0 0.0349571f
c99 3 0 0.0404333f
r100 28 31 3.9
r101 21 25 1.42857
r102 18 31 82.9714
r103 17 18 95.0857
r104 13 17 2.67857
r105 13 14 88.2939
r106 11 25 88.2939
r107 10 14 3.05086
r108 10 21 88.2939
r109 9 14 3.84071
r110 5 28 3.06959
r111 5 7 86.58
r112 1 28 3.06959
r113 1 3 109.98
.ends

.subckt PM_CPU_BONUS%XI9/XI8/XI9/XI6/NET1 3 7 9 10 16 17 22
c52 22 0 0.0104759f
c53 17 0 0.00324303f
c54 16 0 0.010398f
c55 9 0 0.0282049f
c56 7 0 0.0281956f
c57 3 0 0.0559143f
r58 19 22 5.85
r59 17 22 82.9714
r60 16 17 95.0857
r61 12 16 2.05357
r62 12 13 88.2939
r63 10 13 2.06014
r64 9 13 4.83143
r65 5 19 3.06959
r66 5 7 58.11
r67 1 19 3.06959
r68 1 3 138.45
.ends

.subckt PM_CPU_BONUS%XI9/XI8/XI9/XI6/NET2 3 7 9 10 11 17 18 25 31
c97 31 0 0.0112406f
c98 25 0 0.0122368f
c99 18 0 0.00315673f
c100 17 0 0.0312246f
c101 11 0 0.00753453f
c102 9 0 0.0347849f
c103 7 0 0.0481118f
c104 3 0 0.0279109f
r105 28 31 5.85
r106 25 26 88.2939
r107 21 25 1.42857
r108 21 22 88.2939
r109 18 31 82.9714
r110 17 18 95.0857
r111 13 17 5.625
r112 13 14 88.2939
r113 11 26 0.800714
r114 10 22 0.800714
r115 10 14 4.57086
r116 9 14 2.32071
r117 5 28 3.06959
r118 5 7 130.26
r119 1 28 3.06959
r120 1 3 66.3
.ends

.subckt PM_CPU_BONUS%XI9/XI8/XI9/XI6/NET3 3 7 9 10 11 17 18 25 31
c92 31 0 0.00848447f
c93 25 0 0.0103336f
c94 18 0 0.00289777f
c95 17 0 0.0128842f
c96 11 0 0.00841957f