* File: cpu_bonus.pex.netlist
* Created: Tue Jan 23 15:38:15 2024
* Program "Calibre xRC"
* Version "v2016.4_38.25"
* 
.include "cpu_bonus.pex.netlist.pex"
.subckt cpu_bonus  CLK PC<1> PC<2> PC<3> PC<4> PC<5> PC<6> PC<0> PC<7> INST<8>
+ INST<9> VDD! GND! WDATA<2> WDATA<3> WDATA<6> WDATA<0> WDATA<7> WDATA<5>
+ WDATA<1> WDATA<4> WADDR<2> WADDR<3> WADDR<6> WADDR<0> WADDR<7> WADDR<5>
+ WADDR<1> WADDR<4> PC_CLR INST<6> INST<7> INST<3> WEN INST<2> SRAM_PEC INST<1>
+ INST<0> INST<15> INST<14> INST<13> INST<12> INST<11> INST<10> INST<4> INST<5>
* 
* INST_I<5>	INST_I<5>
* INST_I<4>	INST_I<4>
* INST_I<10>	INST_I<10>
* INST_I<11>	INST_I<11>
* INST_I<12>	INST_I<12>
* INST_I<13>	INST_I<13>
* INST_I<14>	INST_I<14>
* INST_I<15>	INST_I<15>
* INST_I<0>	INST_I<0>
* INST_I<1>	INST_I<1>
* SRAM_PEC	SRAM_PEC
* INST_I<2>	INST_I<2>
* WEN	WEN
* INST_I<3>	INST_I<3>
* INST_I<7>	INST_I<7>
* INST_I<6>	INST_I<6>
* PC_CLR	PC_CLR
* WADDR<4>	WADDR<4>
* WADDR<1>	WADDR<1>
* WADDR<5>	WADDR<5>
* WADDR<7>	WADDR<7>
* WADDR<0>	WADDR<0>
* WADDR<6>	WADDR<6>
* WADDR<3>	WADDR<3>
* WADDR<2>	WADDR<2>
* WDATA<4>	WDATA<4>
* WDATA<1>	WDATA<1>
* WDATA<5>	WDATA<5>
* WDATA<7>	WDATA<7>
* WDATA<0>	WDATA<0>
* WDATA<6>	WDATA<6>
* WDATA<3>	WDATA<3>
* WDATA<2>	WDATA<2>
* GND!	GND!
* VDD!	VDD!
* INST_I<9>	INST_I<9>
* INST_I<8>	INST_I<8>
* PC<7>	PC<7>
* PC<0>	PC<0>
* PC<6>	PC<6>
* PC<5>	PC<5>
* PC<4>	PC<4>
* PC<3>	PC<3>
* PC<2>	PC<2>
* PC<1>	PC<1>
* CLK	CLK
mXI13/XI7/XI0/MM0 N_XI13/XI7/NET5_XI13/XI7/XI0/MM0_d
+ N_SRC0_DATA<7>_XI13/XI7/XI0/MM0_g N_GND!_XI13/XI7/XI0/MM0_s
+ N_GND!_XI13/XI7/XI0/MM0_b NMOS_VTL L=5e-08 W=9e-08 AD=1.08e-14 AS=1.08e-14
+ PD=4.2e-07 PS=4.2e-07
mXI13/XI7/XI1/MM0 N_WDATA<7>_XI13/XI7/XI1/MM0_d
+ N_XI13/XI7/NET5_XI13/XI7/XI1/MM0_g N_GND!_XI13/XI7/XI1/MM0_s
+ N_GND!_XI13/XI7/XI0/MM0_b NMOS_VTL L=5e-08 W=9e-08 AD=1.08e-14 AS=1.08e-14
+ PD=4.2e-07 PS=4.2e-07
mXI13/XI7/XI0/MM1 N_XI13/XI7/NET5_XI13/XI7/XI0/MM1_d
+ N_SRC0_DATA<7>_XI13/XI7/XI0/MM1_g N_VDD!_XI13/XI7/XI0/MM1_s
+ N_VDD!_XI13/XI7/XI0/MM1_b PMOS_VTL L=5e-08 W=1.8e-07 AD=2.16e-14 AS=2.16e-14
+ PD=6e-07 PS=6e-07
mXI13/XI7/XI1/MM1 N_WDATA<7>_XI13/XI7/XI1/MM1_d
+ N_XI13/XI7/NET5_XI13/XI7/XI1/MM1_g N_VDD!_XI13/XI7/XI1/MM1_s
+ N_VDD!_XI13/XI7/XI0/MM1_b PMOS_VTL L=5e-08 W=1.8e-07 AD=2.16e-14 AS=2.16e-14
+ PD=6e-07 PS=6e-07
mXI13/XI6/XI0/MM0 N_XI13/XI6/NET5_XI13/XI6/XI0/MM0_d
+ N_SRC0_DATA<6>_XI13/XI6/XI0/MM0_g N_GND!_XI13/XI6/XI0/MM0_s
+ N_GND!_XI13/XI6/XI0/MM0_b NMOS_VTL L=5e-08 W=9e-08 AD=1.08e-14 AS=1.08e-14
+ PD=4.2e-07 PS=4.2e-07
mXI13/XI6/XI1/MM0 N_WDATA<6>_XI13/XI6/XI1/MM0_d
+ N_XI13/XI6/NET5_XI13/XI6/XI1/MM0_g N_GND!_XI13/XI6/XI1/MM0_s
+ N_GND!_XI13/XI6/XI0/MM0_b NMOS_VTL L=5e-08 W=9e-08 AD=1.08e-14 AS=1.08e-14
+ PD=4.2e-07 PS=4.2e-07
mXI13/XI6/XI0/MM1 N_XI13/XI6/NET5_XI13/XI6/XI0/MM1_d
+ N_SRC0_DATA<6>_XI13/XI6/XI0/MM1_g N_VDD!_XI13/XI6/XI0/MM1_s
+ N_VDD!_XI13/XI6/XI0/MM1_b PMOS_VTL L=5e-08 W=1.8e-07 AD=2.16e-14 AS=2.16e-14
+ PD=6e-07 PS=6e-07
mXI13/XI6/XI1/MM1 N_WDATA<6>_XI13/XI6/XI1/MM1_d
+ N_XI13/XI6/NET5_XI13/XI6/XI1/MM1_g N_VDD!_XI13/XI6/XI1/MM1_s
+ N_VDD!_XI13/XI6/XI0/MM1_b PMOS_VTL L=5e-08 W=1.8e-07 AD=2.16e-14 AS=2.16e-14
+ PD=6e-07 PS=6e-07
mXI13/XI5/XI0/MM0 N_XI13/XI5/NET5_XI13/XI5/XI0/MM0_d
+ N_SRC0_DATA<5>_XI13/XI5/XI0/MM0_g N_GND!_XI13/XI5/XI0/MM0_s
+ N_GND!_XI13/XI5/XI0/MM0_b NMOS_VTL L=5e-08 W=9e-08 AD=1.08e-14 AS=1.08e-14
+ PD=4.2e-07 PS=4.2e-07
mXI13/XI5/XI1/MM0 N_WDATA<5>_XI13/XI5/XI1/MM0_d
+ N_XI13/XI5/NET5_XI13/XI5/XI1/MM0_g N_GND!_XI13/XI5/XI1/MM0_s
+ N_GND!_XI13/XI5/XI0/MM0_b NMOS_VTL L=5e-08 W=9e-08 AD=1.08e-14 AS=1.08e-14
+ PD=4.2e-07 PS=4.2e-07
mXI13/XI5/XI0/MM1 N_XI13/XI5/NET5_XI13/XI5/XI0/MM1_d
+ N_SRC0_DATA<5>_XI13/XI5/XI0/MM1_g N_VDD!_XI13/XI5/XI0/MM1_s
+ N_VDD!_XI13/XI5/XI0/MM1_b PMOS_VTL L=5e-08 W=1.8e-07 AD=2.16e-14 AS=2.16e-14
+ PD=6e-07 PS=6e-07
mXI13/XI5/XI1/MM1 N_WDATA<5>_XI13/XI5/XI1/MM1_d
+ N_XI13/XI5/NET5_XI13/XI5/XI1/MM1_g N_VDD!_XI13/XI5/XI1/MM1_s
+ N_VDD!_XI13/XI5/XI0/MM1_b PMOS_VTL L=5e-08 W=1.8e-07 AD=2.16e-14 AS=2.16e-14
+ PD=6e-07 PS=6e-07
mXI13/XI4/XI0/MM0 N_XI13/XI4/NET5_XI13/XI4/XI0/MM0_d
+ N_SRC0_DATA<4>_XI13/XI4/XI0/MM0_g N_GND!_XI13/XI4/XI0/MM0_s
+ N_GND!_XI13/XI4/XI0/MM0_b NMOS_VTL L=5e-08 W=9e-08 AD=1.08e-14 AS=1.08e-14
+ PD=4.2e-07 PS=4.2e-07
mXI13/XI4/XI1/MM0 N_WDATA<4>_XI13/XI4/XI1/MM0_d
+ N_XI13/XI4/NET5_XI13/XI4/XI1/MM0_g N_GND!_XI13/XI4/XI1/MM0_s
+ N_GND!_XI13/XI4/XI0/MM0_b NMOS_VTL L=5e-08 W=9e-08 AD=1.08e-14 AS=1.08e-14
+ PD=4.2e-07 PS=4.2e-07
mXI13/XI4/XI0/MM1 N_XI13/XI4/NET5_XI13/XI4/XI0/MM1_d
+ N_SRC0_DATA<4>_XI13/XI4/XI0/MM1_g N_VDD!_XI13/XI4/XI0/MM1_s
+ N_VDD!_XI13/XI4/XI0/MM1_b PMOS_VTL L=5e-08 W=1.8e-07 AD=2.16e-14 AS=2.16e-14
+ PD=6e-07 PS=6e-07
mXI13/XI4/XI1/MM1 N_WDATA<4>_XI13/XI4/XI1/MM1_d
+ N_XI13/XI4/NET5_XI13/XI4/XI1/MM1_g N_VDD!_XI13/XI4/XI1/MM1_s
+ N_VDD!_XI13/XI4/XI0/MM1_b PMOS_VTL L=5e-08 W=1.8e-07 AD=2.16e-14 AS=2.16e-14
+ PD=6e-07 PS=6e-07
mXI13/XI3/XI0/MM0 N_XI13/XI3/NET5_XI13/XI3/XI0/MM0_d
+ N_SRC0_DATA<3>_XI13/XI3/XI0/MM0_g N_GND!_XI13/XI3/XI0/MM0_s
+ N_GND!_XI13/XI3/XI0/MM0_b NMOS_VTL L=5e-08 W=9e-08 AD=1.08e-14 AS=1.08e-14
+ PD=4.2e-07 PS=4.2e-07
mXI13/XI3/XI1/MM0 N_WDATA<3>_XI13/XI3/XI1/MM0_d
+ N_XI13/XI3/NET5_XI13/XI3/XI1/MM0_g N_GND!_XI13/XI3/XI1/MM0_s
+ N_GND!_XI13/XI3/XI0/MM0_b NMOS_VTL L=5e-08 W=9e-08 AD=1.08e-14 AS=1.08e-14
+ PD=4.2e-07 PS=4.2e-07
mXI13/XI3/XI0/MM1 N_XI13/XI3/NET5_XI13/XI3/XI0/MM1_d
+ N_SRC0_DATA<3>_XI13/XI3/XI0/MM1_g N_VDD!_XI13/XI3/XI0/MM1_s
+ N_VDD!_XI13/XI3/XI0/MM1_b PMOS_VTL L=5e-08 W=1.8e-07 AD=2.16e-14 AS=2.16e-14
+ PD=6e-07 PS=6e-07
mXI13/XI3/XI1/MM1 N_WDATA<3>_XI13/XI3/XI1/MM1_d
+ N_XI13/XI3/NET5_XI13/XI3/XI1/MM1_g N_VDD!_XI13/XI3/XI1/MM1_s
+ N_VDD!_XI13/XI3/XI0/MM1_b PMOS_VTL L=5e-08 W=1.8e-07 AD=2.16e-14 AS=2.16e-14
+ PD=6e-07 PS=6e-07
mXI13/XI2/XI0/MM0 N_XI13/XI2/NET5_XI13/XI2/XI0/MM0_d
+ N_SRC0_DATA<2>_XI13/XI2/XI0/MM0_g N_GND!_XI13/XI2/XI0/MM0_s
+ N_GND!_XI13/XI2/XI0/MM0_b NMOS_VTL L=5e-08 W=9e-08 AD=1.08e-14 AS=1.08e-14
+ PD=4.2e-07 PS=4.2e-07
mXI13/XI2/XI1/MM0 N_WDATA<2>_XI13/XI2/XI1/MM0_d
+ N_XI13/XI2/NET5_XI13/XI2/XI1/MM0_g N_GND!_XI13/XI2/XI1/MM0_s
+ N_GND!_XI13/XI2/XI0/MM0_b NMOS_VTL L=5e-08 W=9e-08 AD=1.08e-14 AS=1.08e-14
+ PD=4.2e-07 PS=4.2e-07
mXI13/XI2/XI0/MM1 N_XI13/XI2/NET5_XI13/XI2/XI0/MM1_d
+ N_SRC0_DATA<2>_XI13/XI2/XI0/MM1_g N_VDD!_XI13/XI2/XI0/MM1_s
+ N_VDD!_XI13/XI2/XI0/MM1_b PMOS_VTL L=5e-08 W=1.8e-07 AD=2.16e-14 AS=2.16e-14
+ PD=6e-07 PS=6e-07
mXI13/XI2/XI1/MM1 N_WDATA<2>_XI13/XI2/XI1/MM1_d
+ N_XI13/XI2/NET5_XI13/XI2/XI1/MM1_g N_VDD!_XI13/XI2/XI1/MM1_s
+ N_VDD!_XI13/XI2/XI0/MM1_b PMOS_VTL L=5e-08 W=1.8e-07 AD=2.16e-14 AS=2.16e-14
+ PD=6e-07 PS=6e-07
mXI13/XI1/XI0/MM0 N_XI13/XI1/NET5_XI13/XI1/XI0/MM0_d
+ N_SRC0_DATA<1>_XI13/XI1/XI0/MM0_g N_GND!_XI13/XI1/XI0/MM0_s
+ N_GND!_XI13/XI1/XI0/MM0_b NMOS_VTL L=5e-08 W=9e-08 AD=1.08e-14 AS=1.08e-14
+ PD=4.2e-07 PS=4.2e-07
mXI13/XI1/XI1/MM0 N_WDATA<1>_XI13/XI1/XI1/MM0_d
+ N_XI13/XI1/NET5_XI13/XI1/XI1/MM0_g N_GND!_XI13/XI1/XI1/MM0_s
+ N_GND!_XI13/XI1/XI0/MM0_b NMOS_VTL L=5e-08 W=9e-08 AD=1.08e-14 AS=1.08e-14
+ PD=4.2e-07 PS=4.2e-07
mXI13/XI1/XI0/MM1 N_XI13/XI1/NET5_XI13/XI1/XI0/MM1_d
+ N_SRC0_DATA<1>_XI13/XI1/XI0/MM1_g N_VDD!_XI13/XI1/XI0/MM1_s
+ N_VDD!_XI13/XI1/XI0/MM1_b PMOS_VTL L=5e-08 W=1.8e-07 AD=2.16e-14 AS=2.16e-14
+ PD=6e-07 PS=6e-07
mXI13/XI1/XI1/MM1 N_WDATA<1>_XI13/XI1/XI1/MM1_d
+ N_XI13/XI1/NET5_XI13/XI1/XI1/MM1_g N_VDD!_XI13/XI1/XI1/MM1_s
+ N_VDD!_XI13/XI1/XI0/MM1_b PMOS_VTL L=5e-08 W=1.8e-07 AD=2.16e-14 AS=2.16e-14
+ PD=6e-07 PS=6e-07
mXI13/XI0/XI0/MM0 N_XI13/XI0/NET5_XI13/XI0/XI0/MM0_d
+ N_SRC0_DATA<0>_XI13/XI0/XI0/MM0_g N_GND!_XI13/XI0/XI0/MM0_s
+ N_GND!_XI13/XI0/XI0/MM0_b NMOS_VTL L=5e-08 W=9e-08 AD=1.08e-14 AS=1.08e-14
+ PD=4.2e-07 PS=4.2e-07
mXI13/XI0/XI1/MM0 N_WDATA<0>_XI13/XI0/XI1/MM0_d
+ N_XI13/XI0/NET5_XI13/XI0/XI1/MM0_g N_GND!_XI13/XI0/XI1/MM0_s
+ N_GND!_XI13/XI0/XI0/MM0_b NMOS_VTL L=5e-08 W=9e-08 AD=1.08e-14 AS=1.08e-14
+ PD=4.2e-07 PS=4.2e-07
mXI13/XI0/XI0/MM1 N_XI13/XI0/NET5_XI13/XI0/XI0/MM1_d
+ N_SRC0_DATA<0>_XI13/XI0/XI0/MM1_g N_VDD!_XI13/XI0/XI0/MM1_s
+ N_VDD!_XI13/XI0/XI0/MM1_b PMOS_VTL L=5e-08 W=1.8e-07 AD=2.16e-14 AS=2.16e-14
+ PD=6e-07 PS=6e-07
mXI13/XI0/XI1/MM1 N_WDATA<0>_XI13/XI0/XI1/MM1_d
+ N_XI13/XI0/NET5_XI13/XI0/XI1/MM1_g N_VDD!_XI13/XI0/XI1/MM1_s
+ N_VDD!_XI13/XI0/XI0/MM1_b PMOS_VTL L=5e-08 W=1.8e-07 AD=2.16e-14 AS=2.16e-14
+ PD=6e-07 PS=6e-07
mXI14/XI7/XI0/MM0 N_XI14/XI7/NET5_XI14/XI7/XI0/MM0_d
+ N_SRC1_DATA<7>_XI14/XI7/XI0/MM0_g N_GND!_XI14/XI7/XI0/MM0_s
+ N_GND!_XI14/XI7/XI0/MM0_b NMOS_VTL L=5e-08 W=9e-08 AD=1.08e-14 AS=1.08e-14
+ PD=4.2e-07 PS=4.2e-07
mXI14/XI7/XI1/MM0 N_WADDR<7>_XI14/XI7/XI1/MM0_d
+ N_XI14/XI7/NET5_XI14/XI7/XI1/MM0_g N_GND!_XI14/XI7/XI1/MM0_s
+ N_GND!_XI14/XI7/XI0/MM0_b NMOS_VTL L=5e-08 W=9e-08 AD=1.08e-14 AS=1.08e-14
+ PD=4.2e-07 PS=4.2e-07
mXI14/XI7/XI0/MM1 N_XI14/XI7/NET5_XI14/XI7/XI0/MM1_d
+ N_SRC1_DATA<7>_XI14/XI7/XI0/MM1_g N_VDD!_XI14/XI7/XI0/MM1_s
+ N_VDD!_XI14/XI7/XI0/MM1_b PMOS_VTL L=5e-08 W=1.8e-07 AD=2.16e-14 AS=2.16e-14
+ PD=6e-07 PS=6e-07
mXI14/XI7/XI1/MM1 N_WADDR<7>_XI14/XI7/XI1/MM1_d
+ N_XI14/XI7/NET5_XI14/XI7/XI1/MM1_g N_VDD!_XI14/XI7/XI1/MM1_s
+ N_VDD!_XI14/XI7/XI0/MM1_b PMOS_VTL L=5e-08 W=1.8e-07 AD=2.16e-14 AS=2.16e-14
+ PD=6e-07 PS=6e-07
mXI14/XI6/XI0/MM0 N_XI14/XI6/NET5_XI14/XI6/XI0/MM0_d
+ N_SRC1_DATA<6>_XI14/XI6/XI0/MM0_g N_GND!_XI14/XI6/XI0/MM0_s
+ N_GND!_XI14/XI6/XI0/MM0_b NMOS_VTL L=5e-08 W=9e-08 AD=1.08e-14 AS=1.08e-14
+ PD=4.2e-07 PS=4.2e-07
mXI14/XI6/XI1/MM0 N_WADDR<6>_XI14/XI6/XI1/MM0_d
+ N_XI14/XI6/NET5_XI14/XI6/XI1/MM0_g N_GND!_XI14/XI6/XI1/MM0_s
+ N_GND!_XI14/XI6/XI0/MM0_b NMOS_VTL L=5e-08 W=9e-08 AD=1.08e-14 AS=1.08e-14
+ PD=4.2e-07 PS=4.2e-07
mXI14/XI6/XI0/MM1 N_XI14/XI6/NET5_XI14/XI6/XI0/MM1_d
+ N_SRC1_DATA<6>_XI14/XI6/XI0/MM1_g N_VDD!_XI14/XI6/XI0/MM1_s
+ N_VDD!_XI14/XI6/XI0/MM1_b PMOS_VTL L=5e-08 W=1.8e-07 AD=2.16e-14 AS=2.16e-14
+ PD=6e-07 PS=6e-07
mXI14/XI6/XI1/MM1 N_WADDR<6>_XI14/XI6/XI1/MM1_d
+ N_XI14/XI6/NET5_XI14/XI6/XI1/MM1_g N_VDD!_XI14/XI6/XI1/MM1_s
+ N_VDD!_XI14/XI6/XI0/MM1_b PMOS_VTL L=5e-08 W=1.8e-07 AD=2.16e-14 AS=2.16e-14
+ PD=6e-07 PS=6e-07
mXI14/XI5/XI0/MM0 N_XI14/XI5/NET5_XI14/XI5/XI0/MM0_d
+ N_SRC1_DATA<5>_XI14/XI5/XI0/MM0_g N_GND!_XI14/XI5/XI0/MM0_s
+ N_GND!_XI14/XI5/XI0/MM0_b NMOS_VTL L=5e-08 W=9e-08 AD=1.08e-14 AS=1.08e-14
+ PD=4.2e-07 PS=4.2e-07
mXI14/XI5/XI1/MM0 N_WADDR<5>_XI14/XI5/XI1/MM0_d
+ N_XI14/XI5/NET5_XI14/XI5/XI1/MM0_g N_GND!_XI14/XI5/XI1/MM0_s
+ N_GND!_XI14/XI5/XI0/MM0_b NMOS_VTL L=5e-08 W=9e-08 AD=1.08e-14 AS=1.08e-14
+ PD=4.2e-07 PS=4.2e-07
mXI14/XI5/XI0/MM1 N_XI14/XI5/NET5_XI14/XI5/XI0/MM1_d
+ N_SRC1_DATA<5>_XI14/XI5/XI0/MM1_g N_VDD!_XI14/XI5/XI0/MM1_s
+ N_VDD!_XI14/XI5/XI0/MM1_b PMOS_VTL L=5e-08 W=1.8e-07 AD=2.16e-14 AS=2.16e-14
+ PD=6e-07 PS=6e-07
mXI14/XI5/XI1/MM1 N_WADDR<5>_XI14/XI5/XI1/MM1_d
+ N_XI14/XI5/NET5_XI14/XI5/XI1/MM1_g N_VDD!_XI14/XI5/XI1/MM1_s
+ N_VDD!_XI14/XI5/XI0/MM1_b PMOS_VTL L=5e-08 W=1.8e-07 AD=2.16e-14 AS=2.16e-14
+ PD=6e-07 PS=6e-07
mXI14/XI4/XI0/MM0 N_XI14/XI4/NET5_XI14/XI4/XI0/MM0_d
+ N_SRC1_DATA<4>_XI14/XI4/XI0/MM0_g N_GND!_XI14/XI4/XI0/MM0_s
+ N_GND!_XI14/XI4/XI0/MM0_b NMOS_VTL L=5e-08 W=9e-08 AD=1.08e-14 AS=1.08e-14
+ PD=4.2e-07 PS=4.2e-07
mXI14/XI4/XI1/MM0 N_WADDR<4>_XI14/XI4/XI1/MM0_d
+ N_XI14/XI4/NET5_XI14/XI4/XI1/MM0_g N_GND!_XI14/XI4/XI1/MM0_s
+ N_GND!_XI14/XI4/XI0/MM0_b NMOS_VTL L=5e-08 W=9e-08 AD=1.08e-14 AS=1.08e-14
+ PD=4.2e-07 PS=4.2e-07
mXI14/XI4/XI0/MM1 N_XI14/XI4/NET5_XI14/XI4/XI0/MM1_d
+ N_SRC1_DATA<4>_XI14/XI4/XI0/MM1_g N_VDD!_XI14/XI4/XI0/MM1_s
+ N_VDD!_XI14/XI4/XI0/MM1_b PMOS_VTL L=5e-08 W=1.8e-07 AD=2.16e-14 AS=2.16e-14
+ PD=6e-07 PS=6e-07
mXI14/XI4/XI1/MM1 N_WADDR<4>_XI14/XI4/XI1/MM1_d
+ N_XI14/XI4/NET5_XI14/XI4/XI1/MM1_g N_VDD!_XI14/XI4/XI1/MM1_s
+ N_VDD!_XI14/XI4/XI0/MM1_b PMOS_VTL L=5e-08 W=1.8e-07 AD=2.16e-14 AS=2.16e-14
+ PD=6e-07 PS=6e-07
mXI14/XI3/XI0/MM0 N_XI14/XI3/NET5_XI14/XI3/XI0/MM0_d
+ N_SRC1_DATA<3>_XI14/XI3/XI0/MM0_g N_GND!_XI14/XI3/XI0/MM0_s
+ N_GND!_XI14/XI3/XI0/MM0_b NMOS_VTL L=5e-08 W=9e-08 AD=1.08e-14 AS=1.08e-14
+ PD=4.2e-07 PS=4.2e-07
mXI14/XI3/XI1/MM0 N_WADDR<3>_XI14/XI3/XI1/MM0_d
+ N_XI14/XI3/NET5_XI14/XI3/XI1/MM0_g N_GND!_XI14/XI3/XI1/MM0_s
+ N_GND!_XI14/XI3/XI0/MM0_b NMOS_VTL L=5e-08 W=9e-08 AD=1.08e-14 AS=1.08e-14
+ PD=4.2e-07 PS=4.2e-07
mXI14/XI3/XI0/MM1 N_XI14/XI3/NET5_XI14/XI3/XI0/MM1_d
+ N_SRC1_DATA<3>_XI14/XI3/XI0/MM1_g N_VDD!_XI14/XI3/XI0/MM1_s
+ N_VDD!_XI14/XI3/XI0/MM1_b PMOS_VTL L=5e-08 W=1.8e-07 AD=2.16e-14 AS=2.16e-14
+ PD=6e-07 PS=6e-07
mXI14/XI3/XI1/MM1 N_WADDR<3>_XI14/XI3/XI1/MM1_d
+ N_XI14/XI3/NET5_XI14/XI3/XI1/MM1_g N_VDD!_XI14/XI3/XI1/MM1_s
+ N_VDD!_XI14/XI3/XI0/MM1_b PMOS_VTL L=5e-08 W=1.8e-07 AD=2.16e-14 AS=2.16e-14
+ PD=6e-07 PS=6e-07
mXI14/XI2/XI0/MM0 N_XI14/XI2/NET5_XI14/XI2/XI0/MM0_d
+ N_SRC1_DATA<2>_XI14/XI2/XI0/MM0_g N_GND!_XI14/XI2/XI0/MM0_s
+ N_GND!_XI14/XI2/XI0/MM0_b NMOS_VTL L=5e-08 W=9e-08 AD=1.08e-14 AS=1.08e-14
+ PD=4.2e-07 PS=4.2e-07
mXI14/XI2/XI1/MM0 N_WADDR<2>_XI14/XI2/XI1/MM0_d
+ N_XI14/XI2/NET5_XI14/XI2/XI1/MM0_g N_GND!_XI14/XI2/XI1/MM0_s
+ N_GND!_XI14/XI2/XI0/MM0_b NMOS_VTL L=5e-08 W=9e-08 AD=1.08e-14 AS=1.08e-14
+ PD=4.2e-07 PS=4.2e-07
mXI14/XI2/XI0/MM1 N_XI14/XI2/NET5_XI14/XI2/XI0/MM1_d
+ N_SRC1_DATA<2>_XI14/XI2/XI0/MM1_g N_VDD!_XI14/XI2/XI0/MM1_s
+ N_VDD!_XI14/XI2/XI0/MM1_b PMOS_VTL L=5e-08 W=1.8e-07 AD=2.16e-14 AS=2.16e-14
+ PD=6e-07 PS=6e-07
mXI14/XI2/XI1/MM1 N_WADDR<2>_XI14/XI2/XI1/MM1_d
+ N_XI14/XI2/NET5_XI14/XI2/XI1/MM1_g N_VDD!_XI14/XI2/XI1/MM1_s
+ N_VDD!_XI14/XI2/XI0/MM1_b PMOS_VTL L=5e-08 W=1.8e-07 AD=2.16e-14 AS=2.16e-14
+ PD=6e-07 PS=6e-07
mXI14/XI1/XI0/MM0 N_XI14/XI1/NET5_XI14/XI1/XI0/MM0_d
+ N_SRC1_DATA<1>_XI14/XI1/XI0/MM0_g N_GND!_XI14/XI1/XI0/MM0_s
+ N_GND!_XI14/XI1/XI0/MM0_b NMOS_VTL L=5e-08 W=9e-08 AD=1.08e-14 AS=1.08e-14
+ PD=4.2e-07 PS=4.2e-07
mXI14/XI1/XI1/MM0 N_WADDR<1>_XI14/XI1/XI1/MM0_d
+ N_XI14/XI1/NET5_XI14/XI1/XI1/MM0_g N_GND!_XI14/XI1/XI1/MM0_s
+ N_GND!_XI14/XI1/XI0/MM0_b NMOS_VTL L=5e-08 W=9e-08 AD=1.08e-14 AS=1.08e-14
+ PD=4.2e-07 PS=4.2e-07
mXI14/XI1/XI0/MM1 N_XI14/XI1/NET5_XI14/XI1/XI0/MM1_d
+ N_SRC1_DATA<1>_XI14/XI1/XI0/MM1_g N_VDD!_XI14/XI1/XI0/MM1_s
+ N_VDD!_XI14/XI1/XI0/MM1_b PMOS_VTL L=5e-08 W=1.8e-07 AD=2.16e-14 AS=2.16e-14
+ PD=6e-07 PS=6e-07
mXI14/XI1/XI1/MM1 N_WADDR<1>_XI14/XI1/XI1/MM1_d
+ N_XI14/XI1/NET5_XI14/XI1/XI1/MM1_g N_VDD!_XI14/XI1/XI1/MM1_s
+ N_VDD!_XI14/XI1/XI0/MM1_b PMOS_VTL L=5e-08 W=1.8e-07 AD=2.16e-14 AS=2.16e-14
+ PD=6e-07 PS=6e-07
mXI14/XI0/XI0/MM0 N_XI14/XI0/NET5_XI14/XI0/XI0/MM0_d
+ N_SRC1_DATA<0>_XI14/XI0/XI0/MM0_g N_GND!_XI14/XI0/XI0/MM0_s
+ N_GND!_XI14/XI0/XI0/MM0_b NMOS_VTL L=5e-08 W=9e-08 AD=1.08e-14 AS=1.08e-14
+ PD=4.2e-07 PS=4.2e-07
mXI14/XI0/XI1/MM0 N_WADDR<0>_XI14/XI0/XI1/MM0_d
+ N_XI14/XI0/NET5_XI14/XI0/XI1/MM0_g N_GND!_XI14/XI0/XI1/MM0_s
+ N_GND!_XI14/XI0/XI0/MM0_b NMOS_VTL L=5e-08 W=9e-08 AD=1.08e-14 AS=1.08e-14
+ PD=4.2e-07 PS=4.2e-07
mXI14/XI0/XI0/MM1 N_XI14/XI0/NET5_XI14/XI0/XI0/MM1_d
+ N_SRC1_DATA<0>_XI14/XI0/XI0/MM1_g N_VDD!_XI14/XI0/XI0/MM1_s
+ N_VDD!_XI14/XI0/XI0/MM1_b PMOS_VTL L=5e-08 W=1.8e-07 AD=2.16e-14 AS=2.16e-14
+ PD=6e-07 PS=6e-07
mXI14/XI0/XI1/MM1 N_WADDR<0>_XI14/XI0/XI1/MM1_d
+ N_XI14/XI0/NET5_XI14/XI0/XI1/MM1_g N_VDD!_XI14/XI0/XI1/MM1_s
+ N_VDD!_XI14/XI0/XI0/MM1_b PMOS_VTL L=5e-08 W=1.8e-07 AD=2.16e-14 AS=2.16e-14
+ PD=6e-07 PS=6e-07
mXI8/XI22/XI103/MM0 N_XI8/XI22/NET372_XI8/XI22/XI103/MM0_d
+ N_SRC0_DATA<7>_XI8/XI22/XI103/MM0_g N_GND!_XI8/XI22/XI103/MM0_s
+ N_GND!_XI8/XI22/XI253/XI0/MM4_b NMOS_VTL L=5e-08 W=9e-08 AD=1.08e-14
+ AS=1.08e-14 PD=4.2e-07 PS=4.2e-07
mXI8/XI22/XI250/XI1/MM0 N_MEM_RESULT<7>_XI8/XI22/XI250/XI1/MM0_d
+ N_XI8/XI22/XI250/NET5_XI8/XI22/XI250/XI1/MM0_g N_GND!_XI8/XI22/XI250/XI1/MM0_s
+ N_GND!_XI8/XI22/XI253/XI0/MM4_b NMOS_VTL L=5e-08 W=9e-08 AD=1.08e-14
+ AS=1.08e-14 PD=4.2e-07 PS=4.2e-07
mXI8/XI22/XI250/XI0/MM0 N_XI8/XI22/XI250/NET5_XI8/XI22/XI250/XI0/MM0_d
+ N_XI8/XI22/NET0340_XI8/XI22/XI250/XI0/MM0_g N_GND!_XI8/XI22/XI250/XI0/MM0_s
+ N_GND!_XI8/XI22/XI253/XI0/MM4_b NMOS_VTL L=5e-08 W=9e-08 AD=1.08e-14
+ AS=1.08e-14 PD=4.2e-07 PS=4.2e-07
mXI8/XI22/XI249/MM2 N_XI8/XI22/XI249/NET3_XI8/XI22/XI249/MM2_d
+ N_XI8/XI22/BL1_XI8/XI22/XI249/MM2_g N_XI8/XI22/XI249/NET5_XI8/XI22/XI249/MM2_s
+ N_GND!_XI8/XI22/XI253/XI0/MM4_b NMOS_VTL L=5e-08 W=1.8e-07 AD=2.16e-14
+ AS=2.16e-14 PD=6e-07 PS=6e-07
mXI8/XI22/XI249/MM3 N_XI8/XI22/NET0340_XI8/XI22/XI249/MM3_d
+ N_XI8/XI22/BL0_XI8/XI22/XI249/MM3_g N_XI8/XI22/XI249/NET5_XI8/XI22/XI249/MM3_s
+ N_GND!_XI8/XI22/XI253/XI0/MM4_b NMOS_VTL L=5e-08 W=1.8e-07 AD=2.16e-14
+ AS=2.16e-14 PD=6e-07 PS=6e-07
mXI8/XI22/XI236/MM1 N_XI8/XI22/REN_XI8/XI22/XI236/MM1_d
+ N_MEM_REN_XI8/XI22/XI236/MM1_g XI8/XI22/XI236/NET10
+ N_GND!_XI8/XI22/XI253/XI0/MM4_b NMOS_VTL L=5e-08 W=1.8e-07 AD=2.16e-14
+ AS=2.7e-14 PD=6e-07 PS=6.6e-07
mXI8/XI22/XI236/MM4 XI8/XI22/XI236/NET10 N_SRAM_PEC_XI8/XI22/XI236/MM4_g
+ N_GND!_XI8/XI22/XI236/MM4_s N_GND!_XI8/XI22/XI253/XI0/MM4_b NMOS_VTL L=5e-08
+ W=1.8e-07 AD=2.7e-14 AS=2.16e-14 PD=6.6e-07 PS=6e-07
mXI8/XI22/MM100 N_XI8/XI22/BL1_XI8/XI22/MM100_d
+ N_XI8/XI22/BL1_SWITCH_XI8/XI22/MM100_g N_GND!_XI8/XI22/MM100_s
+ N_GND!_XI8/XI22/XI253/XI0/MM4_b NMOS_VTL L=5e-08 W=3.6e-07 AD=4.32e-14
+ AS=4.32e-14 PD=9.6e-07 PS=9.6e-07
mXI8/XI22/MM4 N_XI8/XI22/NET0329_XI8/XI22/MM4_d
+ N_XI8/XI22/WL_IN<0>_XI8/XI22/MM4_g N_XI8/XI22/BL0_XI8/XI22/MM4_s
+ N_GND!_XI8/XI22/XI253/XI0/MM4_b NMOS_VTL L=5e-08 W=9e-08 AD=1.08e-14
+ AS=1.08e-14 PD=4.2e-07 PS=4.2e-07
mXI8/XI22/MM3 N_XI8/XI22/NET0329_XI8/XI22/MM3_d N_XI8/XI22/NET080_XI8/XI22/MM3_g
+ N_GND!_XI8/XI22/MM3_s N_GND!_XI8/XI22/XI253/XI0/MM4_b NMOS_VTL L=5e-08
+ W=2.2e-07 AD=2.64e-14 AS=2.64e-14 PD=6.8e-07 PS=6.8e-07
mXI8/XI22/MM1 N_XI8/XI22/NET080_XI8/XI22/MM1_d N_XI8/XI22/NET0329_XI8/XI22/MM1_g
+ N_GND!_XI8/XI22/MM1_s N_GND!_XI8/XI22/XI253/XI0/MM4_b NMOS_VTL L=5e-08
+ W=2.2e-07 AD=2.64e-14 AS=2.64e-14 PD=6.8e-07 PS=6.8e-07
mXI8/XI22/MM99 N_XI8/XI22/BL0_XI8/XI22/MM99_d
+ N_XI8/XI22/BL0_SWITCH_XI8/XI22/MM99_g N_GND!_XI8/XI22/MM99_s
+ N_GND!_XI8/XI22/XI253/XI0/MM4_b NMOS_VTL L=5e-08 W=3.6e-07 AD=4.32e-14
+ AS=4.32e-14 PD=9.6e-07 PS=9.6e-07
mXI8/XI22/MM7 N_XI8/XI22/NET080_XI8/XI22/MM7_d
+ N_XI8/XI22/WL_IN<0>_XI8/XI22/MM7_g N_XI8/XI22/BL1_XI8/XI22/MM7_s
+ N_GND!_XI8/XI22/XI253/XI0/MM4_b NMOS_VTL L=5e-08 W=9e-08 AD=1.08e-14
+ AS=1.08e-14 PD=4.2e-07 PS=4.2e-07
mXI8/XI22/MM108 N_XI8/XI22/NET0328_XI8/XI22/MM108_d
+ N_XI8/XI22/WL_IN<1>_XI8/XI22/MM108_g N_XI8/XI22/BL0_XI8/XI22/MM108_s
+ N_GND!_XI8/XI22/XI253/XI0/MM4_b NMOS_VTL L=5e-08 W=9e-08 AD=1.08e-14
+ AS=1.08e-14 PD=4.2e-07 PS=4.2e-07
mXI8/XI22/MM107 N_XI8/XI22/NET0328_XI8/XI22/MM107_d
+ N_XI8/XI22/NET075_XI8/XI22/MM107_g N_GND!_XI8/XI22/MM107_s
+ N_GND!_XI8/XI22/XI253/XI0/MM4_b NMOS_VTL L=5e-08 W=2.2e-07 AD=2.64e-14
+ AS=2.64e-14 PD=6.8e-07 PS=6.8e-07
mXI8/XI22/MM106 N_XI8/XI22/NET075_XI8/XI22/MM106_d
+ N_XI8/XI22/NET0328_XI8/XI22/MM106_g N_GND!_XI8/XI22/MM106_s
+ N_GND!_XI8/XI22/XI253/XI0/MM4_b NMOS_VTL L=5e-08 W=2.2e-07 AD=2.64e-14
+ AS=2.64e-14 PD=6.8e-07 PS=6.8e-07
mXI8/XI22/MM111 N_XI8/XI22/NET075_XI8/XI22/MM111_d
+ N_XI8/XI22/WL_IN<1>_XI8/XI22/MM111_g N_XI8/XI22/BL1_XI8/XI22/MM111_s
+ N_GND!_XI8/XI22/XI253/XI0/MM4_b NMOS_VTL L=5e-08 W=9e-08 AD=1.08e-14
+ AS=1.08e-14 PD=4.2e-07 PS=4.2e-07
mXI8/XI22/MM120 N_XI8/XI22/NET082_XI8/XI22/MM120_d
+ N_XI8/XI22/WL_IN<2>_XI8/XI22/MM120_g N_XI8/XI22/BL0_XI8/XI22/MM120_s
+ N_GND!_XI8/XI22/XI253/XI0/MM4_b NMOS_VTL L=5e-08 W=9e-08 AD=1.08e-14
+ AS=1.08e-14 PD=4.2e-07 PS=4.2e-07
mXI8/XI22/MM119 N_XI8/XI22/NET082_XI8/XI22/MM119_d
+ N_XI8/XI22/NET079_XI8/XI22/MM119_g N_GND!_XI8/XI22/MM119_s
+ N_GND!_XI8/XI22/XI253/XI0/MM4_b NMOS_VTL L=5e-08 W=2.2e-07 AD=2.64e-14
+ AS=2.64e-14 PD=6.8e-07 PS=6.8e-07
mXI8/XI22/MM118 N_XI8/XI22/NET079_XI8/XI22/MM118_d
+ N_XI8/XI22/NET082_XI8/XI22/MM118_g N_GND!_XI8/XI22/MM118_s
+ N_GND!_XI8/XI22/XI253/XI0/MM4_b NMOS_VTL L=5e-08 W=2.2e-07 AD=2.64e-14
+ AS=2.64e-14 PD=6.8e-07 PS=6.8e-07
mXI8/XI22/MM123 N_XI8/XI22/NET079_XI8/XI22/MM123_d
+ N_XI8/XI22/WL_IN<2>_XI8/XI22/MM123_g N_XI8/XI22/BL1_XI8/XI22/MM123_s
+ N_GND!_XI8/XI22/XI253/XI0/MM4_b NMOS_VTL L=5e-08 W=9e-08 AD=1.08e-14
+ AS=1.08e-14 PD=4.2e-07 PS=4.2e-07
mXI8/XI22/MM114 N_XI8/XI22/NET0327_XI8/XI22/MM114_d
+ N_XI8/XI22/WL_IN<3>_XI8/XI22/MM114_g N_XI8/XI22/BL0_XI8/XI22/MM114_s
+ N_GND!_XI8/XI22/XI253/XI0/MM4_b NMOS_VTL L=5e-08 W=9e-08 AD=1.08e-14
+ AS=1.08e-14 PD=4.2e-07 PS=4.2e-07
mXI8/XI22/MM113 N_XI8/XI22/NET0327_XI8/XI22/MM113_d
+ N_XI8/XI22/NET074_XI8/XI22/MM113_g N_GND!_XI8/XI22/MM113_s
+ N_GND!_XI8/XI22/XI253/XI0/MM4_b NMOS_VTL L=5e-08 W=2.2e-07 AD=2.64e-14
+ AS=2.64e-14 PD=6.8e-07 PS=6.8e-07
mXI8/XI22/MM112 N_XI8/XI22/NET074_XI8/XI22/MM112_d
+ N_XI8/XI22/NET0327_XI8/XI22/MM112_g N_GND!_XI8/XI22/MM112_s
+ N_GND!_XI8/XI22/XI253/XI0/MM4_b NMOS_VTL L=5e-08 W=2.2e-07 AD=2.64e-14
+ AS=2.64e-14 PD=6.8e-07 PS=6.8e-07
mXI8/XI22/MM117 N_XI8/XI22/NET074_XI8/XI22/MM117_d
+ N_XI8/XI22/WL_IN<3>_XI8/XI22/MM117_g N_XI8/XI22/BL1_XI8/XI22/MM117_s
+ N_GND!_XI8/XI22/XI253/XI0/MM4_b NMOS_VTL L=5e-08 W=9e-08 AD=1.08e-14
+ AS=1.08e-14 PD=4.2e-07 PS=4.2e-07
mXI8/XI22/MM144 N_XI8/XI22/NET0100_XI8/XI22/MM144_d
+ N_XI8/XI22/WL_IN<4>_XI8/XI22/MM144_g N_XI8/XI22/BL0_XI8/XI22/MM144_s
+ N_GND!_XI8/XI22/XI253/XI0/MM4_b NMOS_VTL L=5e-08 W=9e-08 AD=1.08e-14
+ AS=1.08e-14 PD=4.2e-07 PS=4.2e-07
mXI8/XI22/MM143 N_XI8/XI22/NET0100_XI8/XI22/MM143_d
+ N_XI8/XI22/NET078_XI8/XI22/MM143_g N_GND!_XI8/XI22/MM143_s
+ N_GND!_XI8/XI22/XI253/XI0/MM4_b NMOS_VTL L=5e-08 W=2.2e-07 AD=2.64e-14
+ AS=2.64e-14 PD=6.8e-07 PS=6.8e-07
mXI8/XI22/MM142 N_XI8/XI22/NET078_XI8/XI22/MM142_d
+ N_XI8/XI22/NET0100_XI8/XI22/MM142_g N_GND!_XI8/XI22/MM142_s
+ N_GND!_XI8/XI22/XI253/XI0/MM4_b NMOS_VTL L=5e-08 W=2.2e-07 AD=2.64e-14
+ AS=2.64e-14 PD=6.8e-07 PS=6.8e-07
mXI8/XI22/MM147 N_XI8/XI22/NET078_XI8/XI22/MM147_d
+ N_XI8/XI22/WL_IN<4>_XI8/XI22/MM147_g N_XI8/XI22/BL1_XI8/XI22/MM147_s
+ N_GND!_XI8/XI22/XI253/XI0/MM4_b NMOS_VTL L=5e-08 W=9e-08 AD=1.08e-14
+ AS=1.08e-14 PD=4.2e-07 PS=4.2e-07
mXI8/XI22/MM126 N_XI8/XI22/NET097_XI8/XI22/MM126_d
+ N_XI8/XI22/WL_IN<5>_XI8/XI22/MM126_g N_XI8/XI22/BL0_XI8/XI22/MM126_s
+ N_GND!_XI8/XI22/XI253/XI0/MM4_b NMOS_VTL L=5e-08 W=9e-08 AD=1.08e-14
+ AS=1.08e-14 PD=4.2e-07 PS=4.2e-07
mXI8/XI22/MM125 N_XI8/XI22/NET097_XI8/XI22/MM125_d
+ N_XI8/XI22/NET073_XI8/XI22/MM125_g N_GND!_XI8/XI22/MM125_s
+ N_GND!_XI8/XI22/XI253/XI0/MM4_b NMOS_VTL L=5e-08 W=2.2e-07 AD=2.64e-14
+ AS=2.64e-14 PD=6.8e-07 PS=6.8e-07
mXI8/XI22/MM124 N_XI8/XI22/NET073_XI8/XI22/MM124_d
+ N_XI8/XI22/NET097_XI8/XI22/MM124_g N_GND!_XI8/XI22/MM124_s
+ N_GND!_XI8/XI22/XI253/XI0/MM4_b NMOS_VTL L=5e-08 W=2.2e-07 AD=2.64e-14
+ AS=2.64e-14 PD=6.8e-07 PS=6.8e-07
mXI8/XI22/MM129 N_XI8/XI22/NET073_XI8/XI22/MM129_d
+ N_XI8/XI22/WL_IN<5>_XI8/XI22/MM129_g N_XI8/XI22/BL1_XI8/XI22/MM129_s
+ N_GND!_XI8/XI22/XI253/XI0/MM4_b NMOS_VTL L=5e-08 W=9e-08 AD=1.08e-14
+ AS=1.08e-14 PD=4.2e-07 PS=4.2e-07
mXI8/XI22/MM138 N_XI8/XI22/NET0106_XI8/XI22/MM138_d
+ N_XI8/XI22/WL_IN<6>_XI8/XI22/MM138_g N_XI8/XI22/BL0_XI8/XI22/MM138_s
+ N_GND!_XI8/XI22/XI253/XI0/MM4_b NMOS_VTL L=5e-08 W=9e-08 AD=1.08e-14
+ AS=1.08e-14 PD=4.2e-07 PS=4.2e-07
mXI8/XI22/MM137 N_XI8/XI22/NET0106_XI8/XI22/MM137_d
+ N_XI8/XI22/NET067_XI8/XI22/MM137_g N_GND!_XI8/XI22/MM137_s
+ N_GND!_XI8/XI22/XI253/XI0/MM4_b NMOS_VTL L=5e-08 W=2.2e-07 AD=2.64e-14
+ AS=2.64e-14 PD=6.8e-07 PS=6.8e-07
mXI8/XI22/MM136 N_XI8/XI22/NET067_XI8/XI22/MM136_d
+ N_XI8/XI22/NET0106_XI8/XI22/MM136_g N_GND!_XI8/XI22/MM136_s
+ N_GND!_XI8/XI22/XI253/XI0/MM4_b NMOS_VTL L=5e-08 W=2.2e-07 AD=2.64e-14
+ AS=2.64e-14 PD=6.8e-07 PS=6.8e-07
mXI8/XI22/MM141 N_XI8/XI22/NET067_XI8/XI22/MM141_d
+ N_XI8/XI22/WL_IN<6>_XI8/XI22/MM141_g N_XI8/XI22/BL1_XI8/XI22/MM141_s
+ N_GND!_XI8/XI22/XI253/XI0/MM4_b NMOS_VTL L=5e-08 W=9e-08 AD=1.08e-14
+ AS=1.08e-14 PD=4.2e-07 PS=4.2e-07
mXI8/XI22/MM132 N_XI8/XI22/NET0103_XI8/XI22/MM132_d
+ N_XI8/XI22/WL_IN<7>_XI8/XI22/MM132_g N_XI8/XI22/BL0_XI8/XI22/MM132_s
+ N_GND!_XI8/XI22/XI253/XI0/MM4_b NMOS_VTL L=5e-08 W=9e-08 AD=1.08e-14
+ AS=1.08e-14 PD=4.2e-07 PS=4.2e-07
mXI8/XI22/MM131 N_XI8/XI22/NET0103_XI8/XI22/MM131_d
+ N_XI8/XI22/NET070_XI8/XI22/MM131_g N_GND!_XI8/XI22/MM131_s
+ N_GND!_XI8/XI22/XI253/XI0/MM4_b NMOS_VTL L=5e-08 W=2.2e-07 AD=2.64e-14
+ AS=2.64e-14 PD=6.8e-07 PS=6.8e-07
mXI8/XI22/MM130 N_XI8/XI22/NET070_XI8/XI22/MM130_d
+ N_XI8/XI22/NET0103_XI8/XI22/MM130_g N_GND!_XI8/XI22/MM130_s
+ N_GND!_XI8/XI22/XI253/XI0/MM4_b NMOS_VTL L=5e-08 W=2.2e-07 AD=2.64e-14
+ AS=2.64e-14 PD=6.8e-07 PS=6.8e-07
mXI8/XI22/MM135 N_XI8/XI22/NET070_XI8/XI22/MM135_d
+ N_XI8/XI22/WL_IN<7>_XI8/XI22/MM135_g N_XI8/XI22/BL1_XI8/XI22/MM135_s
+ N_GND!_XI8/XI22/XI253/XI0/MM4_b NMOS_VTL L=5e-08 W=9e-08 AD=1.08e-14
+ AS=1.08e-14 PD=4.2e-07 PS=4.2e-07
mXI8/XI22/MM192 N_XI8/XI22/NET088_XI8/XI22/MM192_d
+ N_XI8/XI22/WL_IN<8>_XI8/XI22/MM192_g N_XI8/XI22/BL0_XI8/XI22/MM192_s
+ N_GND!_XI8/XI22/XI253/XI0/MM4_b NMOS_VTL L=5e-08 W=9e-08 AD=1.08e-14
+ AS=1.08e-14 PD=4.2e-07 PS=4.2e-07
mXI8/XI22/MM191 N_XI8/XI22/NET088_XI8/XI22/MM191_d
+ N_XI8/XI22/NET068_XI8/XI22/MM191_g N_GND!_XI8/XI22/MM191_s
+ N_GND!_XI8/XI22/XI253/XI0/MM4_b NMOS_VTL L=5e-08 W=2.2e-07 AD=2.64e-14
+ AS=2.64e-14 PD=6.8e-07 PS=6.8e-07
mXI8/XI22/MM190 N_XI8/XI22/NET068_XI8/XI22/MM190_d
+ N_XI8/XI22/NET088_XI8/XI22/MM190_g N_GND!_XI8/XI22/MM190_s
+ N_GND!_XI8/XI22/XI253/XI0/MM4_b NMOS_VTL L=5e-08 W=2.2e-07 AD=2.64e-14
+ AS=2.64e-14 PD=6.8e-07 PS=6.8e-07
mXI8/XI22/MM195 N_XI8/XI22/NET068_XI8/XI22/MM195_d
+ N_XI8/XI22/WL_IN<8>_XI8/XI22/MM195_g N_XI8/XI22/BL1_XI8/XI22/MM195_s
+ N_GND!_XI8/XI22/XI253/XI0/MM4_b NMOS_VTL L=5e-08 W=9e-08 AD=1.08e-14
+ AS=1.08e-14 PD=4.2e-07 PS=4.2e-07
mXI8/XI22/MM150 N_XI8/XI22/NET085_XI8/XI22/MM150_d
+ N_XI8/XI22/WL_IN<9>_XI8/XI22/MM150_g N_XI8/XI22/BL0_XI8/XI22/MM150_s
+ N_GND!_XI8/XI22/XI253/XI0/MM4_b NMOS_VTL L=5e-08 W=9e-08 AD=1.08e-14
+ AS=1.08e-14 PD=4.2e-07 PS=4.2e-07
mXI8/XI22/MM149 N_XI8/XI22/NET085_XI8/XI22/MM149_d
+ N_XI8/XI22/NET077_XI8/XI22/MM149_g N_GND!_XI8/XI22/MM149_s
+ N_GND!_XI8/XI22/XI253/XI0/MM4_b NMOS_VTL L=5e-08 W=2.2e-07 AD=2.64e-14
+ AS=2.64e-14 PD=6.8e-07 PS=6.8e-07
mXI8/XI22/MM148 N_XI8/XI22/NET077_XI8/XI22/MM148_d
+ N_XI8/XI22/NET085_XI8/XI22/MM148_g N_GND!_XI8/XI22/MM148_s
+ N_GND!_XI8/XI22/XI253/XI0/MM4_b NMOS_VTL L=5e-08 W=2.2e-07 AD=2.64e-14
+ AS=2.64e-14 PD=6.8e-07 PS=6.8e-07
mXI8/XI22/MM153 N_XI8/XI22/NET077_XI8/XI22/MM153_d
+ N_XI8/XI22/WL_IN<9>_XI8/XI22/MM153_g N_XI8/XI22/BL1_XI8/XI22/MM153_s
+ N_GND!_XI8/XI22/XI253/XI0/MM4_b NMOS_VTL L=5e-08 W=9e-08 AD=1.08e-14
+ AS=1.08e-14 PD=4.2e-07 PS=4.2e-07
mXI8/XI22/MM162 N_XI8/XI22/NET094_XI8/XI22/MM162_d
+ N_XI8/XI22/WL_IN<10>_XI8/XI22/MM162_g N_XI8/XI22/BL0_XI8/XI22/MM162_s
+ N_GND!_XI8/XI22/XI253/XI0/MM4_b NMOS_VTL L=5e-08 W=9e-08 AD=1.08e-14
+ AS=1.08e-14 PD=4.2e-07 PS=4.2e-07
mXI8/XI22/MM161 N_XI8/XI22/NET094_XI8/XI22/MM161_d
+ N_XI8/XI22/NET076_XI8/XI22/MM161_g N_GND!_XI8/XI22/MM161_s
+ N_GND!_XI8/XI22/XI253/XI0/MM4_b NMOS_VTL L=5e-08 W=2.2e-07 AD=2.64e-14
+ AS=2.64e-14 PD=6.8e-07 PS=6.8e-07
mXI8/XI22/MM160 N_XI8/XI22/NET076_XI8/XI22/MM160_d
+ N_XI8/XI22/NET094_XI8/XI22/MM160_g N_GND!_XI8/XI22/MM160_s
+ N_GND!_XI8/XI22/XI253/XI0/MM4_b NMOS_VTL L=5e-08 W=2.2e-07 AD=2.64e-14
+ AS=2.64e-14 PD=6.8e-07 PS=6.8e-07
mXI8/XI22/MM165 N_XI8/XI22/NET076_XI8/XI22/MM165_d
+ N_XI8/XI22/WL_IN<10>_XI8/XI22/MM165_g N_XI8/XI22/BL1_XI8/XI22/MM165_s
+ N_GND!_XI8/XI22/XI253/XI0/MM4_b NMOS_VTL L=5e-08 W=9e-08 AD=1.08e-14
+ AS=1.08e-14 PD=4.2e-07 PS=4.2e-07
mXI8/XI22/MM156 N_XI8/XI22/NET091_XI8/XI22/MM156_d
+ N_XI8/XI22/WL_IN<11>_XI8/XI22/MM156_g N_XI8/XI22/BL0_XI8/XI22/MM156_s
+ N_GND!_XI8/XI22/XI253/XI0/MM4_b NMOS_VTL L=5e-08 W=9e-08 AD=1.08e-14
+ AS=1.08e-14 PD=4.2e-07 PS=4.2e-07
mXI8/XI22/MM155 N_XI8/XI22/NET091_XI8/XI22/MM155_d
+ N_XI8/XI22/NET072_XI8/XI22/MM155_g N_GND!_XI8/XI22/MM155_s
+ N_GND!_XI8/XI22/XI253/XI0/MM4_b NMOS_VTL L=5e-08 W=2.2e-07 AD=2.64e-14
+ AS=2.64e-14 PD=6.8e-07 PS=6.8e-07
mXI8/XI22/MM154 N_XI8/XI22/NET072_XI8/XI22/MM154_d
+ N_XI8/XI22/NET091_XI8/XI22/MM154_g N_GND!_XI8/XI22/MM154_s
+ N_GND!_XI8/XI22/XI253/XI0/MM4_b NMOS_VTL L=5e-08 W=2.2e-07 AD=2.64e-14
+ AS=2.64e-14 PD=6.8e-07 PS=6.8e-07
mXI8/XI22/MM159 N_XI8/XI22/NET072_XI8/XI22/MM159_d
+ N_XI8/XI22/WL_IN<11>_XI8/XI22/MM159_g N_XI8/XI22/BL1_XI8/XI22/MM159_s
+ N_GND!_XI8/XI22/XI253/XI0/MM4_b NMOS_VTL L=5e-08 W=9e-08 AD=1.08e-14
+ AS=1.08e-14 PD=4.2e-07 PS=4.2e-07
mXI8/XI22/MM186 N_XI8/XI22/NET0112_XI8/XI22/MM186_d
+ N_XI8/XI22/WL_IN<12>_XI8/XI22/MM186_g N_XI8/XI22/BL0_XI8/XI22/MM186_s
+ N_GND!_XI8/XI22/XI253/XI0/MM4_b NMOS_VTL L=5e-08 W=9e-08 AD=1.08e-14
+ AS=1.08e-14 PD=4.2e-07 PS=4.2e-07
mXI8/XI22/MM185 N_XI8/XI22/NET0112_XI8/XI22/MM185_d
+ N_XI8/XI22/NET071_XI8/XI22/MM185_g N_GND!_XI8/XI22/MM185_s
+ N_GND!_XI8/XI22/XI253/XI0/MM4_b NMOS_VTL L=5e-08 W=2.2e-07 AD=2.64e-14
+ AS=2.64e-14 PD=6.8e-07 PS=6.8e-07
mXI8/XI22/MM184 N_XI8/XI22/NET071_XI8/XI22/MM184_d
+ N_XI8/XI22/NET0112_XI8/XI22/MM184_g N_GND!_XI8/XI22/MM184_s
+ N_GND!_XI8/XI22/XI253/XI0/MM4_b NMOS_VTL L=5e-08 W=2.2e-07 AD=2.64e-14
+ AS=2.64e-14 PD=6.8e-07 PS=6.8e-07
mXI8/XI22/MM189 N_XI8/XI22/NET071_XI8/XI22/MM189_d
+ N_XI8/XI22/WL_IN<12>_XI8/XI22/MM189_g N_XI8/XI22/BL1_XI8/XI22/MM189_s
+ N_GND!_XI8/XI22/XI253/XI0/MM4_b NMOS_VTL L=5e-08 W=9e-08 AD=1.08e-14
+ AS=1.08e-14 PD=4.2e-07 PS=4.2e-07
mXI8/XI22/MM168 N_XI8/XI22/NET0109_XI8/XI22/MM168_d
+ N_XI8/XI22/WL_IN<13>_XI8/XI22/MM168_g N_XI8/XI22/BL0_XI8/XI22/MM168_s
+ N_GND!_XI8/XI22/XI253/XI0/MM4_b NMOS_VTL L=5e-08 W=9e-08 AD=1.08e-14
+ AS=1.08e-14 PD=4.2e-07 PS=4.2e-07
mXI8/XI22/MM167 N_XI8/XI22/NET0109_XI8/XI22/MM167_d
+ N_XI8/XI22/NET066_XI8/XI22/MM167_g N_GND!_XI8/XI22/MM167_s
+ N_GND!_XI8/XI22/XI253/XI0/MM4_b NMOS_VTL L=5e-08 W=2.2e-07 AD=2.64e-14
+ AS=2.64e-14 PD=6.8e-07 PS=6.8e-07
mXI8/XI22/MM166 N_XI8/XI22/NET066_XI8/XI22/MM166_d
+ N_XI8/XI22/NET0109_XI8/XI22/MM166_g N_GND!_XI8/XI22/MM166_s
+ N_GND!_XI8/XI22/XI253/XI0/MM4_b NMOS_VTL L=5e-08 W=2.2e-07 AD=2.64e-14
+ AS=2.64e-14 PD=6.8e-07 PS=6.8e-07
mXI8/XI22/MM171 N_XI8/XI22/NET066_XI8/XI22/MM171_d
+ N_XI8/XI22/WL_IN<13>_XI8/XI22/MM171_g N_XI8/XI22/BL1_XI8/XI22/MM171_s
+ N_GND!_XI8/XI22/XI253/XI0/MM4_b NMOS_VTL L=5e-08 W=9e-08 AD=1.08e-14
+ AS=1.08e-14 PD=4.2e-07 PS=4.2e-07
mXI8/XI22/MM180 N_XI8/XI22/NET0118_XI8/XI22/MM180_d
+ N_XI8/XI22/WL_IN<14>_XI8/XI22/MM180_g N_XI8/XI22/BL0_XI8/XI22/MM180_s
+ N_GND!_XI8/XI22/XI253/XI0/MM4_b NMOS_VTL L=5e-08 W=9e-08 AD=1.08e-14
+ AS=1.08e-14 PD=4.2e-07 PS=4.2e-07